<net xmlns:xsi="http://www.w3.org/2001/XMLSchema-instance" version="1.20" junctionCornerDetail="5" limitTurnSpeed="5.50" avoidOverlap="0" xsi:noNamespaceSchemaLocation="http://sumo.dlr.de/xsd/net_file.xsd">

    <location netOffset="0.00,0.00" convBoundary="0.00,0.00,1847.56,1832.18" origBoundary="0.00,0.00,900.00,900.00" projParameter="!" />

    <edge id=":A0_0" function="internal">
        <lane id=":A0_0_0" index="0" speed="13.89" length="1.64" shape="183.74,271.05 183.54,271.18 183.41,271.29 183.31,271.42 183.19,271.63" />
        <lane id=":A0_0_1" index="1" speed="7.71" length="1.64" shape="182.02,268.35 181.41,268.75 181.03,269.07 180.73,269.48 180.38,270.11" />
    </edge>
    <edge id=":A0_2" function="internal">
        <lane id=":A0_2_0" index="0" speed="11.52" length="4.91" shape="174.75,267.06 175.58,265.59 176.28,264.65 177.17,263.88 178.58,262.95" />
        <lane id=":A0_2_1" index="1" speed="9.80" length="4.91" shape="177.56,268.59 178.16,267.54 178.65,266.86 179.29,266.32 180.30,265.65" />
    </edge>
    <edge id=":A1_0" function="internal">
        <lane id=":A1_0_0" index="0" speed="12.93" length="40.16" shape="17.74,613.84 7.78,607.44 2.26,599.92 1.17,591.30 4.52,581.56" />
        <lane id=":A1_0_1" index="1" speed="12.06" length="34.82" shape="19.13,610.95 10.39,605.37 5.51,598.87 4.49,591.44 7.34,583.08" />
    </edge>
    <edge id=":A1_2" function="internal">
        <lane id=":A1_2_0" index="0" speed="7.99" length="4.40" shape="19.13,610.95 15.82,608.04" />
    </edge>
    <edge id=":A1_3" function="internal">
        <lane id=":A1_3_0" index="0" speed="3.65" length="1.44" shape="19.13,610.95 18.39,609.71" />
    </edge>
    <edge id=":A1_11" function="internal">
        <lane id=":A1_11_0" index="0" speed="7.99" length="19.33" shape="15.82,608.04 14.32,606.72 13.13,601.39 15.41,596.43 21.00,593.29" />
    </edge>
    <edge id=":A1_12" function="internal">
        <lane id=":A1_12_0" index="0" speed="3.65" length="3.23" shape="18.39,609.71 18.38,608.82 19.08,608.27 20.51,608.07" />
    </edge>
    <edge id=":A1_4" function="internal">
        <lane id=":A1_4_0" index="0" speed="5.46" length="10.13" shape="22.49,599.51 19.36,600.62 18.22,601.93 19.06,603.45 21.90,605.18" />
    </edge>
    <edge id=":A1_5" function="internal">
        <lane id=":A1_5_0" index="0" speed="8.59" length="25.73" shape="21.74,596.40 14.29,596.75 8.62,594.30 5.91,589.57 7.34,583.08" />
    </edge>
    <edge id=":A1_6" function="internal">
        <lane id=":A1_6_0" index="0" speed="3.65" length="4.67" shape="21.74,596.40 20.39,595.91 19.81,595.22 20.02,594.35 21.00,593.29" />
    </edge>
    <edge id=":A1_7" function="internal">
        <lane id=":A1_7_0" index="0" speed="6.08" length="12.10" shape="12.96,586.13 12.06,588.89 12.98,590.48 15.70,590.91 20.25,590.18" />
    </edge>
    <edge id=":A1_8" function="internal">
        <lane id=":A1_8_0" index="0" speed="10.11" length="24.15" shape="12.96,586.13 11.14,591.72 12.03,596.75 15.61,601.24 21.90,605.18" />
        <lane id=":A1_8_1" index="1" speed="11.13" length="29.48" shape="10.15,584.61 7.82,591.58 8.77,597.81 13.00,603.31 20.51,608.07" />
    </edge>
    <edge id=":A1_10" function="internal">
        <lane id=":A1_10_0" index="0" speed="3.65" length="1.28" shape="10.15,584.61 9.02,585.21" />
    </edge>
    <edge id=":A1_13" function="internal">
        <lane id=":A1_13_0" index="0" speed="3.65" length="3.39" shape="9.02,585.21 8.88,585.28 7.98,585.25 7.47,584.52 7.34,583.08" />
    </edge>
    <edge id=":A2_0" function="internal">
        <lane id=":A2_0_0" index="0" speed="11.59" length="12.19" shape="700.71,947.56 699.54,944.13 698.50,941.74 696.83,939.91 693.82,938.15" />
        <lane id=":A2_0_1" index="1" speed="12.70" length="14.71" shape="703.72,946.47 702.28,942.35 700.95,939.53 698.87,937.37 695.20,935.27" />
    </edge>
    <edge id=":A2_2" function="internal">
        <lane id=":A2_2_0" index="0" speed="9.27" length="5.04" shape="703.72,946.47 702.70,941.54" />
    </edge>
    <edge id=":A2_3" function="internal">
        <lane id=":A2_3_0" index="0" speed="3.65" length="1.44" shape="703.72,946.47 704.07,945.07" />
    </edge>
    <edge id=":A2_11" function="internal">
        <lane id=":A2_11_0" index="0" speed="9.27" length="13.49" shape="702.70,941.54 703.45,937.38 705.98,933.99 710.28,931.38" />
    </edge>
    <edge id=":A2_12" function="internal">
        <lane id=":A2_12_0" index="0" speed="3.65" length="3.23" shape="704.07,945.07 704.69,944.42 705.58,944.53 706.73,945.39" />
    </edge>
    <edge id=":A2_4" function="internal">
        <lane id=":A2_4_0" index="0" speed="6.52" length="8.65" shape="712.81,937.26 710.80,938.48 709.62,940.06 709.27,942.00 709.75,944.30" />
    </edge>
    <edge id=":A2_5" function="internal">
        <lane id=":A2_5_0" index="0" speed="12.71" length="16.86" shape="711.55,934.32 706.90,935.93 702.62,936.63 698.72,936.41 695.20,935.27" />
    </edge>
    <edge id=":A2_6" function="internal">
        <lane id=":A2_6_0" index="0" speed="3.65" length="4.67" shape="711.55,934.32 710.13,934.06 709.44,933.48 709.50,932.59 710.28,931.38" />
    </edge>
    <edge id=":A2_7" function="internal">
        <lane id=":A2_7_0" index="0" speed="10.52" length="11.42" shape="697.97,929.50 700.18,930.16 702.76,930.20 705.71,929.63 709.02,928.44" />
    </edge>
    <edge id=":A2_8" function="internal">
        <lane id=":A2_8_0" index="0" speed="13.89" length="19.77" shape="697.97,929.50 702.96,932.28 705.85,935.10 707.75,938.81 709.75,944.30" />
        <lane id=":A2_8_1" index="1" speed="13.72" length="17.24" shape="696.58,932.38 700.91,934.83 703.40,937.31 705.02,940.58 706.73,945.39" />
    </edge>
    <edge id=":A2_10" function="internal">
        <lane id=":A2_10_0" index="0" speed="3.65" length="1.44" shape="696.58,932.38 697.32,933.62" />
    </edge>
    <edge id=":A2_13" function="internal">
        <lane id=":A2_13_0" index="0" speed="3.65" length="3.23" shape="697.32,933.62 697.33,934.52 696.63,935.06 695.20,935.27" />
    </edge>
    <edge id=":A3_0" function="internal">
        <lane id=":A3_0_0" index="0" speed="13.89" length="3.45" shape="762.17,1116.15 761.41,1115.23 760.94,1114.56 760.59,1113.81 760.17,1112.70" />
        <lane id=":A3_0_1" index="1" speed="13.01" length="3.45" shape="764.61,1114.08 764.06,1113.42 763.73,1112.94 763.48,1112.41 763.18,1111.61" />
    </edge>
    <edge id=":A3_2" function="internal">
        <lane id=":A3_2_0" index="0" speed="13.89" length="1.15" shape="769.20,1109.45 769.26,1109.60 769.31,1109.71 769.38,1109.81 769.49,1109.94" />
        <lane id=":A3_2_1" index="1" speed="10.16" length="1.15" shape="766.19,1110.53 766.37,1111.01 766.52,1111.33 766.72,1111.61 767.05,1112.01" />
    </edge>
    <edge id=":B0_0" function="internal">
        <lane id=":B0_0_0" index="0" speed="5.99" length="9.10" shape="598.92,13.39 597.84,11.01 596.33,9.78 594.39,9.71 592.02,10.78" />
    </edge>
    <edge id=":B0_1" function="internal">
        <lane id=":B0_1_0" index="0" speed="8.91" length="21.73" shape="601.99,12.49 601.10,6.32 602.56,1.92 606.38,-0.72 612.54,-1.60" />
    </edge>
    <edge id=":B0_2" function="internal">
        <lane id=":B0_2_0" index="0" speed="3.65" length="4.67" shape="601.99,12.49 602.42,11.11 603.07,10.50 603.95,10.66 605.06,11.59" />
    </edge>
    <edge id=":B0_3" function="internal">
        <lane id=":B0_3_0" index="0" speed="5.98" length="9.08" shape="612.54,4.80 609.97,5.17 608.37,6.27 607.76,8.11 608.13,10.69" />
    </edge>
    <edge id=":B0_4" function="internal">
        <lane id=":B0_4_0" index="0" speed="13.89" length="22.72" shape="612.54,4.80 606.30,4.98 601.69,5.77 597.38,7.58 592.02,10.78" />
        <lane id=":B0_4_1" index="1" speed="13.89" length="22.72" shape="612.54,1.60 606.03,1.86 600.83,2.82 595.93,4.80 590.30,8.08" />
    </edge>
    <edge id=":B0_6" function="internal">
        <lane id=":B0_6_0" index="0" speed="3.65" length="1.44" shape="612.54,1.60 611.34,0.80" />
    </edge>
    <edge id=":B0_11" function="internal">
        <lane id=":B0_11_0" index="0" speed="3.65" length="3.23" shape="611.34,0.80 610.94,0.00 611.34,-0.80 612.54,-1.60" />
    </edge>
    <edge id=":B0_7" function="internal">
        <lane id=":B0_7_0" index="0" speed="13.89" length="26.26" shape="586.86,2.68 593.02,-0.75 599.11,-3.07 605.50,-4.39 612.54,-4.80" />
        <lane id=":B0_7_1" index="1" speed="13.89" length="26.26" shape="588.58,5.38 594.47,2.02 599.97,-0.12 605.76,-1.26 612.54,-1.60" />
    </edge>
    <edge id=":B0_9" function="internal">
        <lane id=":B0_9_0" index="0" speed="8.91" length="6.22" shape="588.58,5.38 594.24,2.82" />
    </edge>
    <edge id=":B0_10" function="internal">
        <lane id=":B0_10_0" index="0" speed="3.65" length="1.44" shape="588.58,5.38 590.02,5.41" />
    </edge>
    <edge id=":B0_12" function="internal">
        <lane id=":B0_12_0" index="0" speed="8.91" length="15.51" shape="594.24,2.82 598.88,3.00 602.48,5.92 605.06,11.59" />
    </edge>
    <edge id=":B0_13" function="internal">
        <lane id=":B0_13_0" index="0" speed="3.65" length="3.23" shape="590.02,5.41 590.79,5.87 590.88,6.76 590.30,8.08" />
    </edge>
    <edge id=":B1_0" function="internal">
        <lane id=":B1_0_0" index="0" speed="13.89" length="33.60" shape="746.91,441.86 739.55,438.19 731.35,434.63 723.01,432.35 715.22,432.51" />
    </edge>
    <edge id=":B1_1" function="internal">
        <lane id=":B1_1_0" index="0" speed="13.89" length="40.22" shape="746.91,441.86 735.13,435.33 726.20,428.91 720.12,422.60 716.89,416.39" />
        <lane id=":B1_1_1" index="1" speed="13.89" length="37.61" shape="748.33,438.99 737.12,432.82 728.66,426.85 722.94,421.07 719.96,415.49" />
    </edge>
    <edge id=":B1_3" function="internal">
        <lane id=":B1_3_0" index="0" speed="7.76" length="2.69" shape="748.33,438.99 746.41,437.11" />
    </edge>
    <edge id=":B1_4" function="internal">
        <lane id=":B1_4_0" index="0" speed="3.65" length="1.44" shape="748.33,438.99 747.62,437.74" />
    </edge>
    <edge id=":B1_20" function="internal">
        <lane id=":B1_20_0" index="0" speed="7.76" length="21.14" shape="746.41,437.11 743.82,434.57 743.12,429.02 745.88,424.16 751.75,421.79" />
    </edge>
    <edge id=":B1_21" function="internal">
        <lane id=":B1_21_0" index="0" speed="3.65" length="3.23" shape="747.62,437.74 747.62,436.85 748.33,436.31 749.76,436.13" />
    </edge>
    <edge id=":B1_5" function="internal">
        <lane id=":B1_5_0" index="0" speed="5.52" length="11.11" shape="752.20,428.17 748.45,428.75 747.03,429.79 747.95,431.30 751.19,433.27" />
    </edge>
    <edge id=":B1_6" function="internal">
        <lane id=":B1_6_0" index="0" speed="13.89" length="37.53" shape="752.20,428.17 743.58,428.82 733.61,429.73 723.69,430.94 715.22,432.51" />
        <lane id=":B1_6_1" index="1" speed="13.89" length="37.53" shape="751.97,424.98 743.27,425.64 733.12,426.58 723.03,427.82 714.47,429.40" />
    </edge>
    <edge id=":B1_8" function="internal">
        <lane id=":B1_8_0" index="0" speed="13.52" length="10.67" shape="751.97,424.98 741.30,425.12" />
    </edge>
    <edge id=":B1_9" function="internal">
        <lane id=":B1_9_0" index="0" speed="3.65" length="1.44" shape="751.97,424.98 750.72,424.27" />
    </edge>
    <edge id=":B1_22" function="internal">
        <lane id=":B1_22_0" index="0" speed="13.52" length="24.86" shape="741.30,425.12 739.23,425.15 729.65,423.63 723.23,420.41 719.96,415.49" />
    </edge>
    <edge id=":B1_23" function="internal">
        <lane id=":B1_23_0" index="0" speed="3.65" length="3.23" shape="750.72,424.27 750.26,423.50 750.61,422.67 751.75,421.79" />
    </edge>
    <edge id=":B1_10" function="internal">
        <lane id=":B1_10_0" index="0" speed="11.84" length="27.04" shape="726.11,413.70 728.42,416.47 733.42,418.21 741.12,418.92 751.52,418.59" />
    </edge>
    <edge id=":B1_11" function="internal">
        <lane id=":B1_11_0" index="0" speed="13.89" length="32.39" shape="726.11,413.70 728.58,418.02 733.59,422.73 741.12,427.81 751.19,433.27" />
        <lane id=":B1_11_1" index="1" speed="13.89" length="35.00" shape="723.03,414.60 725.76,419.55 731.12,424.79 739.12,430.31 749.76,436.13" />
    </edge>
    <edge id=":B1_13" function="internal">
        <lane id=":B1_13_0" index="0" speed="9.18" length="2.01" shape="723.03,414.60 723.32,416.59" />
    </edge>
    <edge id=":B1_14" function="internal">
        <lane id=":B1_14_0" index="0" speed="3.65" length="1.25" shape="723.03,414.60 722.66,415.79" />
    </edge>
    <edge id=":B1_24" function="internal">
        <lane id=":B1_24_0" index="0" speed="9.18" length="17.71" shape="723.32,416.59 723.81,419.98 722.63,424.24 719.52,427.38 714.47,429.40" />
    </edge>
    <edge id=":B1_25" function="internal">
        <lane id=":B1_25_0" index="0" speed="3.65" length="3.42" shape="722.66,415.79 722.60,415.97 721.95,416.58 721.07,416.42 719.96,415.49" />
    </edge>
    <edge id=":B1_15" function="internal">
        <lane id=":B1_15_0" index="0" speed="6.40" length="9.04" shape="712.97,423.18 715.28,422.25 716.71,420.81 717.25,418.86 716.89,416.39" />
    </edge>
    <edge id=":B1_16" function="internal">
        <lane id=":B1_16_0" index="0" speed="13.89" length="38.59" shape="712.97,423.18 721.69,421.57 732.15,420.27 742.65,419.28 751.52,418.59" />
        <lane id=":B1_16_1" index="1" speed="13.89" length="38.59" shape="713.72,426.29 722.36,424.69 732.64,423.42 742.96,422.46 751.75,421.79" />
    </edge>
    <edge id=":B1_18" function="internal">
        <lane id=":B1_18_0" index="0" speed="13.89" length="4.11" shape="713.72,426.29 717.83,426.25" />
    </edge>
    <edge id=":B1_19" function="internal">
        <lane id=":B1_19_0" index="0" speed="3.65" length="1.44" shape="713.72,426.29 715.07,426.78" />
    </edge>
    <edge id=":B1_26" function="internal">
        <lane id=":B1_26_0" index="0" speed="13.89" length="33.76" shape="717.83,426.25 722.19,426.21 732.03,428.66 741.72,432.38 749.76,436.13" />
    </edge>
    <edge id=":B1_27" function="internal">
        <lane id=":B1_27_0" index="0" speed="3.65" length="3.23" shape="715.07,426.78 715.65,427.47 715.45,428.34 714.47,429.40" />
    </edge>
    <edge id=":B2_0" function="internal">
        <lane id=":B2_0_0" index="0" speed="5.47" length="10.54" shape="1271.84,719.03 1270.01,716.01 1268.50,715.14 1267.31,716.42 1266.45,719.84" />
    </edge>
    <edge id=":B2_1" function="internal">
        <lane id=":B2_1_0" index="0" speed="11.09" length="27.19" shape="1271.84,719.03 1267.29,711.57 1262.29,706.99 1256.86,705.28 1251.00,706.45" />
        <lane id=":B2_1_1" index="1" speed="12.03" length="32.14" shape="1274.72,717.63 1269.40,709.04 1263.47,703.83 1256.91,701.99 1249.74,703.51" />
    </edge>
    <edge id=":B2_3" function="internal">
        <lane id=":B2_3_0" index="0" speed="13.89" length="39.38" shape="1274.72,717.63 1270.08,709.91 1263.48,701.37 1256.03,693.67 1248.82,688.50" />
    </edge>
    <edge id=":B2_4" function="internal">
        <lane id=":B2_4_0" index="0" speed="3.65" length="1.33" shape="1274.72,717.63 1274.89,716.31" />
    </edge>
    <edge id=":B2_20" function="internal">
        <lane id=":B2_20_0" index="0" speed="3.65" length="3.34" shape="1274.89,716.31 1274.91,716.20 1275.45,715.49 1276.35,715.50 1277.59,716.22" />
    </edge>
    <edge id=":B2_5" function="internal">
        <lane id=":B2_5_0" index="0" speed="13.89" length="43.46" shape="1251.68,682.78 1259.34,688.40 1267.79,697.10 1275.38,706.65 1280.47,714.82" />
    </edge>
    <edge id=":B2_6" function="internal">
        <lane id=":B2_6_0" index="0" speed="13.89" length="42.92" shape="1251.68,682.78 1259.76,688.66 1264.91,696.80 1267.14,707.19 1266.45,719.84" />
        <lane id=":B2_6_1" index="1" speed="13.89" length="38.86" shape="1250.25,685.64 1257.44,690.92 1262.01,698.30 1263.96,707.77 1263.29,719.34" />
    </edge>
    <edge id=":B2_8" function="internal">
        <lane id=":B2_8_0" index="0" speed="8.26" length="23.38" shape="1250.25,685.64 1255.20,689.75 1256.75,694.77 1254.92,699.69 1249.74,703.51" />
    </edge>
    <edge id=":B2_9" function="internal">
        <lane id=":B2_9_0" index="0" speed="3.65" length="1.44" shape="1250.25,685.64 1250.97,686.89" />
    </edge>
    <edge id=":B2_21" function="internal">
        <lane id=":B2_21_0" index="0" speed="3.65" length="3.23" shape="1250.97,686.89 1250.97,687.79 1250.25,688.32 1248.82,688.50" />
    </edge>
    <edge id=":B2_10" function="internal">
        <lane id=":B2_10_0" index="0" speed="5.52" length="9.52" shape="1247.21,697.63 1249.79,696.14 1250.68,694.60 1249.88,693.01 1247.39,691.37" />
    </edge>
    <edge id=":B2_11" function="internal">
        <lane id=":B2_11_0" index="0" speed="13.71" length="42.06" shape="1247.21,697.63 1257.01,695.40 1265.82,697.52 1273.64,703.99 1280.47,714.82" />
        <lane id=":B2_11_1" index="1" speed="12.89" length="37.10" shape="1248.48,700.57 1256.96,698.69 1264.64,700.67 1271.52,706.52 1277.59,716.22" />
    </edge>
    <edge id=":B2_13" function="internal">
        <lane id=":B2_13_0" index="0" speed="9.73" length="7.67" shape="1248.48,700.57 1256.07,699.47" />
    </edge>
    <edge id=":B2_14" function="internal">
        <lane id=":B2_14_0" index="0" speed="3.65" length="1.44" shape="1248.48,700.57 1249.89,700.83" />
    </edge>
    <edge id=":B2_22" function="internal">
        <lane id=":B2_22_0" index="0" speed="9.73" length="22.99" shape="1256.07,699.47 1256.23,699.45 1261.23,703.07 1263.56,710.14 1263.29,719.34" />
    </edge>
    <edge id=":B2_23" function="internal">
        <lane id=":B2_23_0" index="0" speed="3.65" length="3.23" shape="1249.89,700.83 1250.58,701.41 1250.52,702.30 1249.74,703.51" />
    </edge>
    <edge id=":B2_15" function="internal">
        <lane id=":B2_15_0" index="0" speed="7.42" length="17.20" shape="1256.96,718.35 1257.50,711.79 1256.69,707.63 1254.52,705.85 1251.00,706.45" />
    </edge>
    <edge id=":B2_16" function="internal">
        <lane id=":B2_16_0" index="0" speed="13.16" length="30.73" shape="1256.96,718.35 1257.58,708.94 1256.19,701.30 1252.79,695.45 1247.39,691.37" />
        <lane id=":B2_16_1" index="1" speed="13.89" length="34.79" shape="1260.13,718.85 1260.77,708.36 1259.10,699.80 1255.11,693.18 1248.82,688.50" />
    </edge>
    <edge id=":B2_18" function="internal">
        <lane id=":B2_18_0" index="0" speed="7.88" length="1.97" shape="1260.13,718.85 1260.98,717.07" />
    </edge>
    <edge id=":B2_19" function="internal">
        <lane id=":B2_19_0" index="0" speed="3.65" length="1.34" shape="1260.13,718.85 1261.03,717.86" />
    </edge>
    <edge id=":B2_24" function="internal">
        <lane id=":B2_24_0" index="0" speed="7.88" length="21.83" shape="1260.98,717.07 1262.89,713.11 1267.82,710.59 1273.26,711.55 1277.59,716.22" />
    </edge>
    <edge id=":B2_25" function="internal">
        <lane id=":B2_25_0" index="0" speed="3.65" length="3.33" shape="1261.03,717.86 1261.10,717.78 1261.95,717.51 1262.68,718.03 1263.29,719.34" />
    </edge>
    <edge id=":B3_0" function="internal">
        <lane id=":B3_0_0" index="0" speed="13.89" length="21.25" shape="1128.99,1551.57 1126.93,1545.90 1124.43,1542.26 1121.19,1539.01 1116.94,1534.48" />
        <lane id=":B3_0_1" index="1" speed="13.89" length="22.63" shape="1132.08,1550.75 1129.92,1544.88 1127.19,1540.81 1123.73,1537.13 1119.38,1532.41" />
    </edge>
    <edge id=":B3_2" function="internal">
        <lane id=":B3_2_0" index="0" speed="13.89" length="23.98" shape="1132.08,1550.75 1130.99,1544.36 1131.21,1538.99 1132.21,1533.58 1133.43,1527.07" />
    </edge>
    <edge id=":B3_3" function="internal">
        <lane id=":B3_3_0" index="0" speed="3.65" length="2.34" shape="1132.08,1550.75 1132.55,1549.39 1133.22,1548.79" />
    </edge>
    <edge id=":B3_11" function="internal">
        <lane id=":B3_11_0" index="0" speed="3.65" length="2.34" shape="1133.22,1548.79 1134.09,1548.98 1135.17,1549.93" />
    </edge>
    <edge id=":B3_4" function="internal">
        <lane id=":B3_4_0" index="0" speed="13.89" length="21.39" shape="1139.76,1528.06 1138.51,1534.16 1137.47,1538.67 1137.20,1543.13 1138.27,1549.11" />
    </edge>
    <edge id=":B3_5" function="internal">
        <lane id=":B3_5_0" index="0" speed="8.25" length="3.58" shape="1136.59,1527.57 1135.24,1530.88" />
    </edge>
    <edge id=":B3_6" function="internal">
        <lane id=":B3_6_0" index="0" speed="3.65" length="1.44" shape="1136.59,1527.57 1135.62,1528.63" />
    </edge>
    <edge id=":B3_12" function="internal">
        <lane id=":B3_12_0" index="0" speed="8.25" length="19.82" shape="1135.24,1530.88 1134.16,1533.53 1129.82,1536.51 1124.57,1536.23 1119.38,1532.41" />
    </edge>
    <edge id=":B3_13" function="internal">
        <lane id=":B3_13_0" index="0" speed="3.65" length="3.23" shape="1135.62,1528.63 1134.77,1528.90 1134.04,1528.38 1133.43,1527.07" />
    </edge>
    <edge id=":B3_7" function="internal">
        <lane id=":B3_7_0" index="0" speed="5.51" length="9.54" shape="1124.26,1528.27 1126.46,1530.30 1128.19,1530.70 1129.46,1529.46 1130.27,1526.58" />
    </edge>
    <edge id=":B3_8" function="internal">
        <lane id=":B3_8_0" index="0" speed="13.89" length="24.70" shape="1124.26,1528.27 1128.82,1533.38 1132.73,1537.92 1135.90,1542.85 1138.27,1549.11" />
        <lane id=":B3_8_1" index="1" speed="13.89" length="24.70" shape="1121.82,1530.34 1126.28,1535.26 1129.96,1539.37 1132.91,1543.86 1135.17,1549.93" />
    </edge>
    <edge id=":B3_10" function="internal">
        <lane id=":B3_10_0" index="0" speed="3.65" length="4.67" shape="1121.82,1530.34 1121.99,1531.77 1121.64,1532.59 1120.77,1532.80 1119.38,1532.41" />
    </edge>
    <edge id=":C0_0" function="internal">
        <lane id=":C0_0_0" index="0" speed="11.02" length="16.96" shape="1203.76,16.51 1200.58,11.39 1197.60,7.73 1194.82,5.53 1192.25,4.80" />
    </edge>
    <edge id=":C0_1" function="internal">
        <lane id=":C0_1_0" index="0" speed="8.82" length="25.55" shape="1206.55,14.94 1203.62,7.70 1204.27,2.78 1208.50,0.20 1216.32,-0.04" />
    </edge>
    <edge id=":C0_2" function="internal">
        <lane id=":C0_2_0" index="0" speed="3.65" length="4.67" shape="1206.55,14.94 1206.66,13.51 1207.16,12.77 1208.06,12.72 1209.34,13.38" />
    </edge>
    <edge id=":C0_3" function="internal">
        <lane id=":C0_3_0" index="0" speed="5.59" length="9.35" shape="1215.71,6.33 1212.85,6.42 1211.30,7.36 1211.06,9.16 1212.13,11.81" />
    </edge>
    <edge id=":C0_4" function="internal">
        <lane id=":C0_4_0" index="0" speed="13.89" length="23.67" shape="1215.71,6.33 1209.25,5.69 1204.00,5.21 1198.74,4.90 1192.25,4.80" />
        <lane id=":C0_4_1" index="1" speed="13.89" length="23.67" shape="1216.01,3.15 1209.51,2.50 1204.15,2.01 1198.78,1.71 1192.25,1.60" />
    </edge>
    <edge id=":C0_6" function="internal">
        <lane id=":C0_6_0" index="0" speed="3.65" length="1.44" shape="1216.01,3.15 1214.89,2.23" />
    </edge>
    <edge id=":C0_11" function="internal">
        <lane id=":C0_11_0" index="0" speed="3.65" length="3.23" shape="1214.89,2.23 1214.57,1.40 1215.05,0.64 1216.32,-0.04" />
    </edge>
    <edge id=":C0_7" function="internal">
        <lane id=":C0_7_0" index="0" speed="13.89" length="24.28" shape="1192.25,-4.80 1198.88,-4.69 1204.46,-4.37 1210.02,-3.87 1216.62,-3.23" />
        <lane id=":C0_7_1" index="1" speed="13.89" length="24.28" shape="1192.25,-1.60 1198.83,-1.49 1204.30,-1.18 1209.76,-0.69 1216.32,-0.04" />
    </edge>
    <edge id=":C0_9" function="internal">
        <lane id=":C0_9_0" index="0" speed="12.95" length="3.67" shape="1192.25,-1.60 1195.84,-0.82" />
    </edge>
    <edge id=":C0_10" function="internal">
        <lane id=":C0_10_0" index="0" speed="3.65" length="1.44" shape="1192.25,-1.60 1193.45,-0.80" />
    </edge>
    <edge id=":C0_12" function="internal">
        <lane id=":C0_12_0" index="0" speed="12.95" length="20.01" shape="1195.84,-0.82 1196.58,-0.66 1200.87,2.14 1205.12,6.83 1209.34,13.38" />
    </edge>
    <edge id=":C0_13" function="internal">
        <lane id=":C0_13_0" index="0" speed="3.65" length="3.23" shape="1193.45,-0.80 1193.85,0.00 1193.45,0.80 1192.25,1.60" />
    </edge>
    <edge id=":C1_0" function="internal">
        <lane id=":C1_0_0" index="0" speed="9.09" length="17.87" shape="1408.55,393.71 1407.30,388.43 1405.05,384.75 1401.80,382.68 1397.55,382.22" />
    </edge>
    <edge id=":C1_1" function="internal">
        <lane id=":C1_1_0" index="0" speed="13.89" length="29.27" shape="1408.55,393.71 1407.42,386.49 1405.74,379.65 1403.38,373.03 1400.18,366.49" />
        <lane id=":C1_1_1" index="1" speed="13.89" length="29.27" shape="1411.73,393.32 1410.53,385.92 1408.73,378.67 1406.23,371.64 1402.97,364.93" />
    </edge>
    <edge id=":C1_3" function="internal">
        <lane id=":C1_3_0" index="0" speed="8.35" length="2.84" shape="1411.73,393.32 1412.00,390.48" />
    </edge>
    <edge id=":C1_4" function="internal">
        <lane id=":C1_4_0" index="0" speed="3.65" length="1.44" shape="1411.73,393.32 1412.38,392.03" />
    </edge>
    <edge id=":C1_20" function="internal">
        <lane id=":C1_20_0" index="0" speed="8.35" length="20.37" shape="1412.00,390.48 1412.33,386.91 1415.50,382.82 1420.50,381.50 1426.64,383.43" />
    </edge>
    <edge id=":C1_21" function="internal">
        <lane id=":C1_21_0" index="0" speed="3.65" length="3.23" shape="1412.38,392.03 1413.12,391.53 1413.96,391.83 1414.91,392.93" />
    </edge>
    <edge id=":C1_5" function="internal">
        <lane id=":C1_5_0" index="0" speed="5.56" length="9.41" shape="1423.45,388.98 1420.77,387.85 1418.98,388.07 1418.09,389.63 1418.08,392.53" />
    </edge>
    <edge id=":C1_6" function="internal">
        <lane id=":C1_6_0" index="0" speed="13.89" length="27.20" shape="1423.45,388.98 1417.14,385.72 1410.99,383.46 1404.58,382.27 1397.55,382.22" />
        <lane id=":C1_6_1" index="1" speed="13.89" length="29.05" shape="1425.04,386.20 1418.45,382.88 1411.67,380.48 1404.64,379.15 1397.32,379.03" />
    </edge>
    <edge id=":C1_8" function="internal">
        <lane id=":C1_8_0" index="0" speed="13.89" length="30.98" shape="1425.04,386.20 1418.62,382.00 1412.59,376.96 1407.26,371.23 1402.97,364.93" />
    </edge>
    <edge id=":C1_9" function="internal">
        <lane id=":C1_9_0" index="0" speed="3.65" length="1.44" shape="1425.04,386.20 1424.40,384.91" />
    </edge>
    <edge id=":C1_22" function="internal">
        <lane id=":C1_22_0" index="0" speed="3.65" length="3.23" shape="1424.40,384.91 1424.45,384.02 1425.20,383.52 1426.64,383.43" />
    </edge>
    <edge id=":C1_10" function="internal">
        <lane id=":C1_10_0" index="0" speed="13.89" length="27.61" shape="1408.55,361.79 1412.47,367.72 1416.98,372.62 1422.19,376.83 1428.23,380.65" />
    </edge>
    <edge id=":C1_11" function="internal">
        <lane id=":C1_11_0" index="0" speed="13.89" length="31.74" shape="1408.55,361.79 1411.93,368.88 1414.69,376.71 1416.76,384.77 1418.08,392.53" />
        <lane id=":C1_11_1" index="1" speed="13.89" length="31.74" shape="1405.76,363.36 1409.08,370.26 1411.71,377.69 1413.65,385.34 1414.91,392.93" />
    </edge>
    <edge id=":C1_13" function="internal">
        <lane id=":C1_13_0" index="0" speed="8.82" length="7.00" shape="1405.76,363.36 1408.28,369.77 1408.27,369.88" />
    </edge>
    <edge id=":C1_14" function="internal">
        <lane id=":C1_14_0" index="0" speed="3.65" length="1.44" shape="1405.76,363.36 1405.65,364.80" />
    </edge>
    <edge id=":C1_23" function="internal">
        <lane id=":C1_23_0" index="0" speed="8.82" length="16.34" shape="1408.27,369.88 1407.71,374.52 1404.06,377.61 1397.32,379.03" />
    </edge>
    <edge id=":C1_24" function="internal">
        <lane id=":C1_24_0" index="0" speed="3.65" length="3.23" shape="1405.65,364.80 1405.15,365.54 1404.25,365.58 1402.97,364.93" />
    </edge>
    <edge id=":C1_15" function="internal">
        <lane id=":C1_15_0" index="0" speed="5.76" length="9.17" shape="1396.86,372.64 1399.51,372.08 1400.95,370.87 1401.17,369.01 1400.18,366.49" />
    </edge>
    <edge id=":C1_16" function="internal">
        <lane id=":C1_16_0" index="0" speed="13.89" length="31.83" shape="1396.86,372.64 1404.75,372.89 1413.04,374.51 1421.08,377.20 1428.23,380.65" />
        <lane id=":C1_16_1" index="1" speed="13.89" length="31.83" shape="1397.09,375.83 1404.70,376.02 1412.35,377.50 1419.77,380.04 1426.64,383.43" />
    </edge>
    <edge id=":C1_18" function="internal">
        <lane id=":C1_18_0" index="0" speed="11.22" length="7.13" shape="1397.09,375.83 1404.04,376.49 1404.17,376.56" />
    </edge>
    <edge id=":C1_19" function="internal">
        <lane id=":C1_19_0" index="0" speed="3.65" length="1.44" shape="1397.09,375.83 1398.35,376.55" />
    </edge>
    <edge id=":C1_25" function="internal">
        <lane id=":C1_25_0" index="0" speed="11.22" length="20.66" shape="1404.17,376.56 1409.33,379.55 1412.95,385.03 1414.91,392.93" />
    </edge>
    <edge id=":C1_26" function="internal">
        <lane id=":C1_26_0" index="0" speed="3.65" length="3.23" shape="1398.35,376.55 1398.80,377.32 1398.46,378.14 1397.32,379.03" />
    </edge>
    <edge id=":C2_0" function="internal">
        <lane id=":C2_0_0" index="0" speed="8.76" length="10.71" shape="1522.99,1208.07 1519.85,1208.37 1517.27,1209.22 1515.26,1210.61 1513.83,1212.53" />
    </edge>
    <edge id=":C2_1" function="internal">
        <lane id=":C2_1_0" index="0" speed="13.89" length="53.67" shape="1522.99,1208.07 1516.17,1205.58 1508.45,1197.98 1499.84,1185.26 1490.35,1167.42" />
        <lane id=":C2_1_1" index="1" speed="13.89" length="50.17" shape="1522.96,1204.87 1517.07,1202.48 1510.15,1195.22 1502.20,1183.06 1493.22,1166.02" />
    </edge>
    <edge id=":C2_3" function="internal">
        <lane id=":C2_3_0" index="0" speed="13.89" length="5.85" shape="1522.96,1204.87 1517.74,1202.21" />
    </edge>