<?xml version="1.0" encoding="UTF-8"?>

<routes xmlns:xsi="http://www.w3.org/2001/XMLSchema-instance" xsi:noNamespaceSchemaLocation="http://sumo.dlr.de/xsd/routes_file.xsd">
    <vType id="type1" length="3.00" accel="2.8" decel="4.5"/>
    <vehicle id="0.0" type="type1" depart="0.00">
        <route edges="C1D1 D1C1 C1C0 C0B0 B0A0 A0A1 A1B1 B1B2 B2B3 B3A3 A3A2 A2A1 A1B1 B1C1 C1D1 D1D2 D2D3 D3C3 C3D3 D3D2 D2D1 D1C1 C1B1 B1A1 A1A0 A0B0 B0A0 A0A1 A1A2 A2A3 A3B3 B3B2 B2B1 B1C1 C1C0 C0C1 C1D1 D1D2 D2C2 C2C3 C3D3 D3D2 D2D3 D3C3 C3B3 B3A3 A3A2 A2A1 A1A2 A2B2 B2B3 B3A3 A3A2 A2B2 B2A2 A2B2 B2C2 C2D2 D2D3 D3C3 C3D3 D3D2 D2D1 D1C1 C1C2 C2C3 C3B3 B3C3 C3C2 C2B2 B2C2 C2D2 D2D3 D3C3 C3C2 C2B2 B2B3 B3C3 C3C2 C2D2 D2D3 D3C3 C3B3 B3B2 B2B1 B1C1 C1D1 D1D2 D2D1 D1D0 D0C0 C0B0 B0C0 C0D0 D0D1 D1D2 D2D1 D1D0 D0C0 C0B0 B0A0 A0A1 A1A2 A2A1 A1B1 B1A1 A1A2 A2A3 A3B3 B3C3 C3C2 C2C1 C1D1 D1D2 D2D3 D3C3 C3B3 B3B2 B2A2 A2B2 B2C2 C2D2 D2D1 D1D0 D0C0 C0D0 D0D1 D1D2 D2D1 D1D0 D0C0 C0B0 B0A0 A0A1 A1A2 A2A3 A3B3 B3C3 C3C2 C2C3 C3B3 B3C3 C3B3 B3B2 B2A2 A2B2 B2A2 A2A1 A1A2 A2B2 B2C2 C2C3 C3B3 B3B2 B2A2 A2A1 A1A2 A2B2 B2C2 C2B2 B2A2 A2A3 A3B3 B3A3 A3A2 A2A3 A3B3 B3A3 A3A2 A2B2 B2B3 B3A3 A3A2 A2A1 A1B1 B1C1 C1C2 C2C3 C3B3 B3C3 C3C2 C2D2 D2D1 D1D0 D0C0 C0C1 C1C2 C2C3 C3D3 D3D2 D2D1 D1C1 C1D1 D1D2 D2D3 D3C3 C3D3 D3D2 D2D3 D3C3 C3C2 C2C1 C1B1 B1B0 B0A0 A0A1 A1A2 A2A3 A3B3 B3C3 C3C2 C2D2 D2D1 D1D0 D0C0 C0B0 B0A0 A0A1 A1A0 A0B0 B0C0 C0C1 C1D1 D1D2 D2D3 D3C3 C3D3 D3D2 D2C2 C2D2 D2D1 D1C1 C1B1 B1A1 A1A0 A0B0 B0B1 B1A1 A1A0 A0B0 B0B1 B1C1 C1C0 C0D0 D0D1 D1D2 D2D3 D3C3 C3B3 B3B2 B2B1 B1A1 A1A0 A0B0 B0B1 B1B2 B2B3 B3A3 A3A2 A2B2 B2C2 C2D2 D2C2 C2B2 B2B3 B3C3 C3D3 D3D2 D2C2 C2D2 D2C2 C2C1 C1B1 B1C1 C1C2 C2D2 D2D3 D3C3 C3C2 C2D2 D2D3 D3C3 C3C2 C2C1 C1C0 C0B0 B0A0 A0A1 A1A2 A2A1 A1A0 A0B0 B0B1 B1B2 B2B3 B3B2 B2B3 B3A3 A3A2 A2B2 B2A2 A2B2 B2B3 B3A3 A3A2 A2B2 B2A2 A2B2 B2C2 C2C1 C1C2 C2C3 C3D3 D3D2 D2D3 D3C3 C3B3 B3A3 A3A2 A2A1 A1B1 B1B2 B2A2 A2B2 B2B1 B1C1 C1B1 B1B0 B0A0 A0A1 A1A2 A2A1 A1A0 A0B0 B0B1 B1C1 C1C0 C0B0 B0B1 B1A1 A1A0 A0B0 B0A0 A0A1 A1A0 A0B0 B0C0 C0C1 C1C2 C2C1 C1C0 C0D0 D0D1 D1D2 D2D1 D1D2 D2C2 C2D2 D2C2 C2C1 C1C0 C0D0 D0D1 D1C1 C1D1 D1D2 D2C2 C2C1 C1B1 B1B0 B0A0 A0A1 A1A2 A2A1 A1A0 A0B0 B0C0 C0B0 B0C0 C0C1 C1B1 B1B0 B0C0 C0D0 D0D1 D1D0 D0C0 C0B0 B0A0 A0A1 A1A2 A2B2 B2C2 C2C3 C3C2 C2B2 B2A2 A2A3 A3B3 B3A3 A3A2 A2B2 B2B1 B1A1 A1A2 A2A1 A1A0 A0B0 B0C0 C0D0 D0D1 D1D0 D0C0 C0D0 D0D1 D1C1 C1B1 B1C1 C1B1 B1B0 B0C0 C0B0 B0A0 A0A1 A1B1 B1B0 B0A0 A0A1 A1A2 A2A1 A1A0 A0B0 B0B1 B1A1 A1A0 A0B0 B0C0 C0B0 B0A0 A0A1 A1A2 A2A1 A1A2 A2A3 A3B3 B3C3 C3C2 C2B2 B2B1 B1B0 B0C0 C0C1 C1B1 B1A1 A1A2 A2A3 A3B3 B3C3 C3D3 D3D2 D2D1 D1D0 D0C0 C0C1 C1B1 B1C1 C1C0 C0B0 B0A0 A0A1 A1A0 A0B0 B0B1 B1B0 B0A0 A0A1 A1A0 A0B0 B0A0 A0A1 A1A2 A2A1 A1A0 A0B0 B0C0 C0B0 B0B1 B1A1 A1A0 A0B0 B0C0 C0C1 C1C2 C2B2 B2C2 C2C1 C1B1 B1B2"/>
    </vehicle>
    <vehicle id="1.0" type="type1" depart="0.00">
        <route edges="B1A1 A1A0 A0B0 B0A0 A0A1 A1A2 A2A3 A3B3 B3C3 C3D3 D3D2 D2C2 C2C1 C1B1 B1B0 B0C0 C0C1 C1C2 C2D2 D2D3 D3C3 C3B3 B3A3 A3A2 A2B2 B2B1 B1A1 A1B1 B1B0 B0C0 C0D0 D0D1 D1D0 D0C0 C0B0 B0A0 A0A1 A1B1 B1B2 B2A2 A2A1 A1A2 A2B2 B2C2 C2C3 C3B3 B3A3 A3A2 A2B2 B2B3 B3C3 C3D3 D3D2 D2D3 D3C3 C3C2 C2C3 C3B3 B3B2 B2B1 B1B0 B0C0 C0C1 C1C2 C2D2 D2D3 D3C3 C3C2 C2C1 C1C2 C2C3 C3D3 D3D2 D2D1 D1D2 D2C2 C2B2 B2A2 A2A1 A1B1 B1C1 C1D1 D1D0 D0C0 C0D0 D0D1 D1C1 C1D1 D1C1 C1D1 D1D2 D2C2 C2B2 B2C2 C2D2 D2C2 C2C3 C3C2 C2B2 B2B3 B3C3 C3B3 B3A3 A3A2 A2B2 B2C2 C2C1 C1D1 D1D2 D2D3 D3C3 C3C2 C2C3 C3B3 B3A3 A3A2 A2A1 A1A0 A0B0 B0B1 B1B2 B2A2 A2A1 A1A2 A2A3 A3B3 B3A3 A3A2 A2A1 A1B1 B1C1 C1C0 C0C1 C1B1 B1B0 B0B1 B1B0 B0A0 A0A1 A1A2 A2B2 B2A2 A2A1 A1B1 B1C1 C1C2 C2B2 B2B3 B3C3 C3B3 B3B2 B2B1 B1C1 C1D1 D1D0 D0C0 C0C1 C1C2 C2D2 D2C2 C2B2 B2A2 A2B2 B2B1 B1C1 C1B1 B1C1 C1D1 D1C1 C1C0 C0B0 B0A0 A0A1 A1A2 A2A3 A3B3 B3C3 C3C2 C2D2 D2D3 D3C3 C3B3 B3B2 B2A2 A2A1 A1B1 B1C1 C1C0 C0D0 D0D1 D1D0 D0C0 C0B0 B0A0 A0A1 A1B1 B1B2 B2B3 B3A3 A3A2 A2B2 B2C2 C2D2 D2C2 C2C3 C3D3 D3D2 D2D1 D1D0 D0C0 C0B0 B0B1 B1A1 A1A0 A0B0 B0C0 C0C1 C1C2 C2B2 B2B1 B1B0 B0B1 B1C1 C1D1 D1D2 D2D3 D3C3 C3D3 D3D2 D2C2 C2C1 C1C2 C2C3 C3B3 B3A3 A3A2 A2B2 B2C2 C2C1 C1D1 D1D0 D0C0 C0B0 B0B1 B1B2 B2A2 A2A1 A1B1 B1B0 B0A0 A0A1 A1B1 B1A1 A1B1 B1B2 B2C2 C2C3 C3C2 C2C3 C3B3 B3B2 B2B1 B1B0 B0C0 C0B0 B0B1 B1A1 A1A2 A2A3 A3B3 B3C3 C3B3 B3A3 A3A2 A2B2 B2C2 C2C3 C3B3 B3C3 C3D3 D3D2 D2D1 D1D0 D0C0 C0C1 C1D1 D1D0 D0C0 C0B0 B0A0 A0A1 A1B1 B1C1 C1C0 C0B0 B0A0 A0A1 A1A2 A2A3 A3B3 B3C3 C3C2 C2B2 B2A2 A2A1 A1A0 A0B0 B0B1 B1B0 B0C0 C0D0 D0D1 D1C1 C1C0 C0D0 D0D1 D1D0 D0C0 C0C1 C1C0 C0B0 B0A0 A0A1 A1B1 B1B0 B0A0 A0A1 A1A2 A2A3 A3B3 B3C3 C3B3 B3A3 A3A2 A2B2 B2B3 B3A3 A3A2 A2B2 B2B1 B1A1 A1A0 A0B0 B0B1 B1B0 B0C0 C0C1 C1B1 B1B0 B0C0 C0C1 C1D1 D1D2 D2D3 D3C3 C3C2 C2C1 C1C0 C0B0 B0A0 A0A1 A1A2 A2B2 B2C2 C2C3 C3B3 B3A3 A3A2 A2B2 B2A2 A2A3 A3B3 B3C3 C3D3 D3D2 D2D1 D1C1 C1D1 D1D2 D2D1 D1C1 C1B1 B1B0 B0C0 C0C1 C1D1 D1D2 D2C2 C2B2 B2B1 B1A1 A1A0 A0B0 B0B1 B1B2 B2A2 A2A1 A1B1 B1C1 C1D1 D1D0 D0C0 C0C1 C1C2 C2D2 D2D3 D3C3 C3B3 B3B2 B2B1 B1C1 C1B1 B1A1 A1A0 A0B0 B0A0 A0A1 A1B1 B1C1 C1C2 C2D2 D2C2 C2D2 D2C2 C2C3 C3D3 D3D2 D2C2 C2C1 C1B1 B1B2 B2B3 B3A3 A3A2 A2B2 B2B3 B3B2 B2B1 B1B2 B2B3 B3C3 C3D3 D3D2 D2D1 D1C1 C1B1 B1B0 B0A0 A0A1 A1A0 A0B0 B0C0 C0C1 C1B1 B1B2 B2B1 B1A1 A1A0 A0B0 B0B1 B1C1 C1D1 D1D2 D2C2 C2C1 C1D1 D1D0 D0C0 C0D0 D0D1 D1D2 D2D1 D1C1 C1C0 C0D0 D0D1 D1C1 C1C2 C2D2 D2C2 C2C3 C3D3 D3D2 D2D3 D3C3 C3C2 C2D2 D2D3 D3C3 C3B3 B3C3 C3D3 D3D2 D2D1 D1C1 C1C0 C0B0 B0A0"/>
    </vehicle>
    <vehicle id="10.0" type="type1" depart="0.00">
        <route edges="D0C0 C0C1 C1B1 B1B2 B2B1 B1B0 B0C0 C0C1 C1C2 C2C1 C1C0 C0B0 B0A0 A0A1 A1A2 A2B2 B2C2 C2C1 C1B1 B1A1 A1A0 A0B0 B0B1 B1B0 B0B1 B1A1 A1A2 A2A3 A3B3 B3C3 C3C2 C2C1 C1B1 B1A1 A1A2 A2A3 A3B3 B3A3 A3A2 A2A1 A1A0 A0B0 B0B1 B1A1 A1A0 A0B0 B0B1 B1A1 A1A0 A0B0 B0B1 B1A1 A1A0 A0B0 B0B1 B1A1 A1A0 A0B0 B0A0 A0A1 A1A0 A0B0 B0B1 B1A1 A1A2 A2A3 A3B3 B3C3 C3D3 D3D2 D2C2 C2C1 C1D1 D1C1 C1C2 C2C1 C1D1 D1D0 D0C0 C0C1 C1C2 C2C3 C3B3 B3B2 B2A2 A2B2 B2A2 A2A1 A1B1 B1B2 B2A2 A2A1 A1A0 A0B0 B0A0 A0A1 A1A2 A2A3 A3B3 B3C3 C3B3 B3C3 C3B3 B3C3 C3D3 D3D2 D2C2 C2D2 D2C2 C2C1 C1D1 D1C1 C1C0 C0B0 B0A0 A0A1 A1A0 A0B0 B0C0 C0D0 D0D1 D1C1 C1C0 C0B0 B0C0 C0D0 D0D1 D1C1 C1C2 C2C1 C1B1 B1C1 C1C2 C2C3 C3C2 C2C1 C1D1 D1D2 D2D1 D1C1 C1C2 C2B2 B2B1 B1B0 B0A0 A0A1 A1A0 A0B0 B0C0 C0C1 C1C0 C0C1 C1C2 C2B2 B2A2 A2A1 A1B1 B1C1 C1D1 D1C1 C1B1 B1B0 B0A0 A0A1 A1A2 A2A1 A1B1 B1B0 B0C0 C0C1 C1D1 D1D2 D2C2 C2C3 C3D3 D3D2 D2D1 D1C1 C1C0 C0C1 C1C2 C2C3 C3B3 B3A3 A3A2 A2A1 A1A2 A2A3 A3B3 B3C3 C3D3 D3D2 D2C2 C2C3 C3B3 B3C3 C3D3 D3D2 D2D1 D1C1 C1C0 C0B0 B0A0 A0A1 A1A0 A0B0 B0B1 B1C1 C1C2 C2D2 D2D1 D1C1 C1C2 C2C3 C3B3 B3B2 B2B1 B1C1 C1D1 D1D2 D2C2 C2B2 B2A2 A2A3 A3B3 B3A3 A3A2 A2A1 A1B1 B1A1 A1A0 A0B0 B0C0 C0C1 C1C2 C2B2 B2B1 B1C1 C1C0 C0D0 D0D1 D1D0 D0C0 C0B0 B0C0 C0C1 C1D1 D1D2 D2C2 C2C1 C1B1 B1A1 A1A0 A0B0 B0A0 A0A1 A1A0 A0B0 B0A0 A0A1 A1A0 A0B0 B0B1 B1B2 B2B1 B1B0 B0A0 A0A1 A1A2 A2B2 B2C2 C2C3 C3C2 C2D2 D2D1 D1D0 D0C0 C0C1 C1C2 C2C3 C3C2 C2C3 C3B3 B3B2 B2B1 B1B2 B2A2 A2A1 A1A0 A0B0 B0B1 B1B0 B0C0 C0B0 B0B1 B1C1 C1B1 B1B0 B0C0 C0C1 C1C2 C2B2 B2B1 B1B0 B0C0 C0B0 B0A0 A0A1 A1B1 B1B0 B0C0 C0D0 D0D1 D1C1 C1B1 B1B0 B0C0 C0B0 B0A0 A0A1 A1B1 B1C1 C1C2 C2C3 C3B3 B3C3 C3D3 D3D2 D2C2 C2C3 C3B3 B3B2 B2B3 B3B2 B2C2 C2D2 D2D3 D3C3 C3C2 C2D2 D2D3 D3C3 C3B3 B3B2 B2B3 B3A3 A3A2 A2A1 A1A0 A0B0 B0C0 C0C1 C1B1 B1A1 A1A0 A0B0 B0B1 B1A1 A1A2 A2A3 A3B3 B3C3 C3D3 D3D2 D2C2 C2C3 C3D3 D3D2 D2C2 C2C1 C1D1 D1D0 D0C0 C0B0 B0A0 A0A1 A1A2 A2B2 B2B1 B1B0 B0C0 C0C1 C1D1 D1D0 D0C0 C0B0 B0B1 B1B2 B2C2 C2B2 B2A2 A2A1 A1A0 A0B0 B0C0 C0C1 C1C2 C2C1 C1D1 D1D0 D0C0 C0C1 C1C2 C2B2 B2B3 B3A3 A3A2 A2B2 B2B1 B1B0 B0A0 A0A1 A1A0 A0B0 B0B1 B1B2 B2B3 B3A3 A3A2 A2A1 A1A0 A0B0 B0A0 A0A1 A1B1 B1B2 B2C2 C2C3 C3B3 B3B2 B2B1 B1C1 C1C2 C2D2 D2C2 C2D2 D2D1 D1D0 D0C0 C0C1 C1B1 B1C1 C1D1 D1D2 D2D3 D3C3 C3B3 B3B2 B2B3 B3A3 A3A2 A2B2 B2B3 B3C3 C3B3 B3A3 A3A2 A2B2 B2B1 B1A1 A1B1 B1C1 C1D1 D1C1 C1D1 D1D0 D0C0 C0B0 B0A0 A0A1 A1A0 A0B0 B0C0 C0D0 D0D1 D1D0 D0C0 C0C1 C1C2 C2C3 C3D3 D3D2 D2D1 D1D2 D2D1 D1C1 C1C2 C2D2 D2D3 D3C3 C3B3 B3B2 B2A2 A2A3 A3B3 B3B2 B2B1 B1B0"/>
    </vehicle>
    <vehicle id="100.0" type="type1" depart="0.00">
        <route edges="D3C3 C3B3 B3A3 A3A2 A2A1 A1B1 B1C1 C1D1 D1D2 D2D3 D3C3 C3C2 C2C1 C1D1 D1D0 D0C0 C0C1 C1C2 C2B2 B2C2 C2C3 C3D3 D3D2 D2C2 C2C3 C3B3 B3A3 A3A2 A2A3 A3B3 B3C3 C3D3 D3D2 D2C2 C2B2 B2B3 B3C3 C3C2 C2B2 B2A2 A2B2 B2A2 A2B2 B2B1 B1B0 B0A0 A0A1 A1B1 B1A1 A1A2 A2B2 B2A2 A2A1 A1B1 B1B2 B2B3 B3A3 A3A2 A2B2 B2B3 B3C3 C3D3 D3D2 D2D3 D3C3 C3C2 C2C1 C1C2 C2C3 C3C2 C2D2 D2D1 D1C1 C1D1 D1D0 D0C0 C0B0 B0A0 A0A1 A1A2 A2A3 A3B3 B3C3 C3D3 D3D2 D2C2 C2B2 B2C2 C2C1 C1D1 D1D2 D2C2 C2D2 D2D1 D1D0 D0C0 C0C1 C1C2 C2C1 C1D1 D1D0 D0C0 C0C1 C1D1 D1D2 D2C2 C2B2 B2B3 B3A3 A3A2 A2B2 B2A2 A2B2 B2C2 C2C3 C3B3 B3A3 A3A2 A2B2 B2B3 B3A3 A3A2 A2A3 A3B3 B3B2 B2B1 B1A1 A1A0 A0B0 B0B1 B1B0 B0C0 C0D0 D0D1 D1C1 C1B1 B1C1 C1D1 D1D2 D2C2 C2C1 C1D1 D1C1 C1C0 C0B0 B0A0 A0A1 A1A2 A2A3 A3B3 B3A3 A3A2 A2B2 B2A2 A2A1 A1B1 B1B2 B2C2 C2D2 D2D1 D1D0 D0C0 C0B0 B0A0 A0A1 A1A0 A0B0 B0B1 B1B2 B2B3 B3C3 C3B3 B3B2 B2C2 C2D2 D2D3 D3C3 C3B3 B3C3 C3C2 C2C1 C1C0 C0D0 D0D1 D1C1 C1C2 C2D2 D2D1 D1D0 D0C0 C0B0 B0A0 A0A1 A1A2 A2A3 A3B3 B3A3 A3A2 A2B2 B2C2 C2C3 C3D3 D3D2 D2D3 D3C3 C3B3 B3C3 C3D3 D3D2 D2C2 C2C3 C3D3 D3D2 D2D1 D1D0 D0C0 C0C1 C1B1 B1B2 B2C2 C2C3 C3D3 D3D2 D2D1 D1D0 D0C0 C0D0 D0D1 D1D2 D2C2 C2B2 B2B1 B1A1 A1A0 A0B0 B0C0 C0B0 B0B1 B1A1 A1A2 A2B2 B2B1 B1B0 B0B1 B1A1 A1A0 A0B0 B0B1 B1B2 B2B1 B1A1 A1B1 B1C1 C1C0 C0B0 B0C0 C0D0 D0D1 D1D2 D2D1 D1D0 D0C0 C0B0 B0B1 B1B2 B2B1 B1A1 A1A0 A0B0 B0C0 C0C1 C1B1 B1B0 B0B1 B1B2 B2B3 B3A3 A3A2 A2A1 A1A0 A0B0 B0B1 B1A1 A1A0 A0B0 B0B1 B1C1 C1C0 C0C1 C1B1 B1B2 B2B3 B3C3 C3C2 C2C3 C3C2 C2B2 B2B1 B1B2 B2A2 A2A1 A1B1 B1C1 C1D1 D1D0 D0C0 C0C1 C1C0 C0D0 D0D1 D1C1 C1C0 C0D0 D0D1 D1C1 C1C0 C0D0 D0D1 D1C1 C1D1 D1D2 D2D3 D3C3 C3C2 C2D2 D2D1 D1D0 D0C0 C0C1 C1B1 B1B0 B0C0 C0C1 C1D1 D1D2 D2C2 C2B2 B2B1 B1C1 C1D1 D1D0 D0C0 C0B0 B0C0 C0D0 D0D1 D1C1 C1C2 C2D2 D2D3 D3C3 C3C2 C2B2 B2A2 A2A3 A3B3 B3B2 B2B1 B1C1 C1C2 C2C3 C3B3 B3B2 B2C2 C2D2 D2C2 C2B2 B2C2 C2C3 C3B3 B3C3 C3D3 D3D2 D2D1 D1C1 C1C0 C0D0 D0D1 D1D2 D2C2 C2B2 B2B1 B1C1 C1D1 D1D2 D2C2 C2D2 D2D3 D3C3 C3C2 C2D2 D2D1 D1D2 D2D1 D1D2 D2C2 C2B2 B2B1 B1C1 C1D1 D1D2 D2C2 C2C3 C3B3 B3B2 B2B1 B1B2 B2A2 A2B2 B2B3 B3A3 A3A2 A2A1 A1B1 B1B0 B0A0 A0A1 A1B1 B1A1 A1A0 A0B0 B0B1 B1B0 B0C0 C0D0 D0D1 D1C1 C1B1 B1B0 B0C0 C0D0 D0D1 D1D2 D2C2 C2C1 C1D1 D1D2 D2D1 D1D2 D2D1 D1D0 D0C0 C0B0 B0A0 A0A1 A1A2 A2B2 B2B3 B3A3 A3A2 A2A1 A1A0 A0B0 B0B1 B1A1 A1A2 A2A3 A3B3 B3B2 B2C2 C2C3 C3C2 C2C1 C1B1 B1B2 B2A2 A2A1 A1B1 B1B0 B0A0 A0A1 A1A2 A2B2 B2B1 B1B2 B2A2 A2A3 A3B3 B3B2 B2C2 C2B2 B2A2 A2A1 A1A0 A0B0 B0A0 A0A1 A1A0 A0B0 B0B1 B1B0 B0A0 A0A1 A1A2 A2B2 B2B3 B3A3 A3A2"/>
    </vehicle>
    <vehicle id="101.0" type="type1" depart="0.00">
        <route edges="D1C1 C1D1 D1D2 D2D1 D1D0 D0C0 C0B0 B0A0 A0A1 A1A2 A2A3 A3B3 B3B2 B2A2 A2A1 A1B1 B1B2 B2C2 C2C3 C3D3 D3D2 D2C2 C2C1 C1D1 D1D2 D2D3 D3C3 C3C2 C2C1 C1B1 B1B2 B2A2 A2A3 A3B3 B3B2 B2B1 B1B0 B0C0 C0B0 B0A0 A0A1 A1A2 A2A1 A1B1 B1C1 C1C0 C0D0 D0D1 D1C1 C1B1 B1A1 A1A0 A0B0 B0C0 C0C1 C1C2 C2D2 D2D3 D3C3 C3C2 C2C3 C3B3 B3A3 A3A2 A2A1 A1A0 A0B0 B0B1 B1B0 B0C0 C0C1 C1C2 C2C3 C3B3 B3B2 B2A2 A2A1 A1B1 B1C1 C1C0 C0D0 D0D1 D1D0 D0C0 C0C1 C1B1 B1C1 C1C0 C0D0 D0D1 D1C1 C1C2 C2D2 D2D3 D3C3 C3C2 C2C1 C1C0 C0B0 B0A0 A0A1 A1A2 A2B2 B2C2 C2B2 B2B1 B1B0 B0A0 A0A1 A1A2 A2A3 A3B3 B3C3 C3D3 D3D2 D2C2 C2C3 C3B3 B3B2 B2C2 C2C3 C3B3 B3A3 A3A2 A2A1 A1B1 B1C1 C1C2 C2C3 C3B3 B3B2 B2A2 A2A1 A1B1 B1A1 A1A0 A0B0 B0B1 B1A1 A1A0 A0B0 B0A0 A0A1 A1B1 B1C1 C1B1 B1B0 B0C0 C0C1 C1C2 C2B2 B2A2 A2A3 A3B3 B3A3 A3A2 A2A3 A3B3 B3A3 A3A2 A2A1 A1B1 B1A1 A1A2 A2A1 A1B1 B1B0 B0B1 B1C1 C1C0 C0D0 D0D1 D1C1 C1D1 D1D2 D2D3 D3C3 C3D3 D3D2 D2D1 D1D0 D0C0 C0C1 C1B1 B1B0 B0C0 C0C1 C1C2 C2C1 C1C0 C0D0 D0D1 D1D2 D2D3 D3C3 C3D3 D3D2 D2C2 C2B2 B2B1 B1B0 B0C0 C0C1 C1B1 B1C1 C1B1 B1B0 B0B1 B1B0 B0A0 A0A1 A1B1 B1B2 B2C2 C2D2 D2D1 D1C1 C1D1 D1C1 C1C2 C2C3 C3C2 C2D2 D2D1 D1D0 D0C0 C0B0 B0B1 B1C1 C1D1 D1D2 D2D3 D3C3 C3C2 C2C3 C3D3 D3D2 D2C2 C2B2 B2B1 B1A1 A1A0 A0B0 B0A0 A0A1 A1A2 A2A3 A3B3 B3A3 A3A2 A2B2 B2C2 C2D2 D2D3 D3C3 C3B3 B3B2 B2B3 B3B2 B2C2 C2C3 C3D3 D3D2 D2D3 D3C3 C3C2 C2B2 B2B3 B3C3 C3D3 D3D2 D2D1 D1D0 D0C0 C0B0 B0A0 A0A1 A1A2 A2A3 A3B3 B3C3 C3D3 D3D2 D2C2 C2B2 B2B1 B1B2 B2B3 B3A3 A3A2 A2A3 A3B3 B3B2 B2B3 B3C3 C3B3 B3B2 B2C2 C2C3 C3D3 D3D2 D2D1 D1D2 D2D1 D1D0 D0C0 C0C1 C1C2 C2D2 D2D3 D3C3 C3C2 C2D2 D2D1 D1D0 D0C0 C0C1 C1C2 C2C3 C3B3 B3B2 B2A2 A2A1 A1B1 B1A1 A1A0 A0B0 B0A0 A0A1 A1A0 A0B0 B0B1 B1C1 C1B1 B1C1 C1C2 C2D2 D2D3 D3C3 C3C2 C2D2 D2D3 D3C3 C3B3 B3A3 A3A2 A2B2 B2C2 C2D2 D2D1 D1D0 D0C0 C0C1 C1B1 B1C1 C1D1 D1C1 C1C2 C2D2 D2D3 D3C3 C3D3 D3D2 D2D3 D3C3 C3C2 C2D2 D2D3 D3C3 C3C2 C2D2 D2C2 C2B2 B2B3 B3B2 B2C2 C2D2 D2D1 D1D2 D2D3 D3C3 C3C2 C2C1 C1C2 C2C3 C3D3 D3D2 D2D1 D1D2 D2D1 D1D0 D0C0 C0D0 D0D1 D1D0 D0C0 C0B0 B0A0 A0A1 A1B1 B1C1 C1D1 D1D0 D0C0 C0C1 C1B1 B1C1 C1D1 D1D2 D2C2 C2D2 D2D1 D1D0 D0C0 C0D0 D0D1 D1C1 C1C0 C0D0 D0D1 D1C1 C1C2 C2C1 C1C0 C0C1 C1B1 B1A1 A1A0 A0B0 B0C0 C0C1 C1C0 C0B0 B0A0 A0A1 A1A0 A0B0 B0A0 A0A1 A1B1 B1C1 C1D1 D1D0 D0C0 C0B0 B0C0 C0B0 B0B1 B1A1 A1A2 A2B2 B2B3 B3C3 C3B3 B3C3 C3D3 D3D2 D2D3 D3C3 C3C2 C2C3 C3B3 B3C3 C3D3 D3D2 D2D1 D1D0 D0C0 C0D0 D0D1 D1D2 D2D3 D3C3 C3D3 D3D2 D2C2 C2B2 B2C2 C2D2 D2D3 D3C3 C3D3 D3D2 D2D3 D3C3 C3C2 C2D2 D2C2 C2C1 C1B1 B1A1 A1B1 B1C1 C1C2 C2B2 B2A2 A2A3 A3B3"/>
    </vehicle>
    <vehicle id="102.0" type="type1" depart="0.00">
        <route edges="B3C3 C3C2 C2C3 C3D3 D3D2 D2C2 C2B2 B2A2 A2B2 B2A2 A2A1 A1B1 B1B2 B2B1 B1B0 B0C0 C0D0 D0D1 D1C1 C1D1 D1D0 D0C0 C0C1 C1C2 C2C3 C3B3 B3B2 B2C2 C2D2 D2D3 D3C3 C3C2 C2D2 D2D1 D1D2 D2D1 D1D0 D0C0 C0B0 B0C0 C0C1 C1D1 D1C1 C1C0 C0B0 B0A0 A0A1 A1B1 B1B0 B0C0 C0C1 C1B1 B1A1 A1A2 A2B2 B2C2 C2C3 C3C2 C2C3 C3B3 B3B2 B2C2 C2C1 C1C0 C0D0 D0D1 D1C1 C1D1 D1D0 D0C0 C0C1 C1C2 C2C3 C3D3 D3D2 D2D1 D1D0 D0C0 C0D0 D0D1 D1D0 D0C0 C0D0 D0D1 D1C1 C1C2 C2D2 D2D3 D3C3 C3C2 C2B2 B2A2 A2A3 A3B3 B3B2 B2A2 A2A1 A1B1 B1C1 C1D1 D1D2 D2C2 C2C3 C3B3 B3B2 B2B3 B3C3 C3D3 D3D2 D2D1 D1D0 D0C0 C0C1 C1B1 B1B2 B2C2 C2D2 D2D3 D3C3 C3C2 C2B2 B2C2 C2B2 B2B3 B3B2 B2B1 B1B0 B0A0 A0A1 A1B1 B1C1 C1D1 D1D2 D2C2 C2C1 C1C0 C0D0 D0D1 D1C1 C1B1 B1A1 A1A2 A2B2 B2B3 B3A3 A3A2 A2B2 B2B3 B3A3 A3A2 A2A3 A3B3 B3C3 C3D3 D3D2 D2D1 D1C1 C1C2 C2C1 C1D1 D1C1 C1B1 B1B2 B2A2 A2A1 A1B1 B1B0 B0C0 C0C1 C1B1 B1B0 B0C0 C0C1 C1C2 C2C1 C1C0 C0D0 D0D1 D1C1 C1B1 B1A1 A1B1 B1C1 C1D1 D1D0 D0C0 C0C1 C1B1 B1B0 B0C0 C0C1 C1D1 D1D2 D2C2 C2C3 C3B3 B3B2 B2A2 A2A3 A3B3 B3A3 A3A2 A2B2 B2B1 B1B2 B2B1 B1B0 B0C0 C0B0 B0A0 A0A1 A1B1 B1B2 B2C2 C2D2 D2C2 C2C1 C1C0 C0D0 D0D1 D1D0 D0C0 C0C1 C1C2 C2B2 B2B1 B1B0 B0C0 C0D0 D0D1 D1D0 D0C0 C0B0 B0B1 B1B0 B0C0 C0D0 D0D1 D1C1 C1B1 B1A1 A1A2 A2B2 B2B1 B1B0 B0C0 C0C1 C1C0 C0D0 D0D1 D1C1 C1C0 C0D0 D0D1 D1C1 C1C2 C2D2 D2C2 C2C1 C1D1 D1D2 D2C2 C2D2 D2D3 D3C3 C3C2 C2C3 C3B3 B3C3 C3C2 C2C3 C3B3 B3B2 B2B3 B3C3 C3D3 D3D2 D2D1 D1D2 D2C2 C2B2 B2A2 A2A3 A3B3 B3B2 B2C2 C2D2 D2D3 D3C3 C3C2 C2C1 C1C2 C2C3 C3B3 B3B2 B2C2 C2D2 D2D1 D1C1 C1B1 B1A1 A1A0 A0B0 B0C0 C0C1 C1B1 B1A1 A1B1 B1B0 B0C0 C0C1 C1B1 B1B0 B0C0 C0B0 B0B1 B1A1 A1B1 B1B2 B2C2 C2C3 C3B3 B3A3 A3A2 A2A3 A3B3 B3C3 C3D3 D3D2 D2D1 D1D0 D0C0 C0B0 B0C0 C0C1 C1D1 D1C1 C1C0 C0B0 B0B1 B1A1 A1A0 A0B0 B0C0 C0D0 D0D1 D1C1 C1C0 C0B0 B0B1 B1B2 B2A2 A2A3 A3B3 B3C3 C3D3 D3D2 D2C2 C2D2 D2C2 C2D2 D2D1 D1D0 D0C0 C0B0 B0A0 A0A1 A1B1 B1B0 B0A0 A0A1 A1B1 B1C1 C1C2 C2C1 C1C0 C0D0 D0D1 D1D0 D0C0 C0C1 C1D1 D1D2 D2C2 C2C1 C1C0 C0C1 C1B1 B1B0 B0A0 A0A1 A1B1 B1C1 C1D1 D1C1 C1B1 B1A1 A1A0 A0B0 B0B1 B1B2 B2A2 A2A1 A1A0 A0B0 B0C0 C0B0 B0B1 B1A1 A1A2 A2A1 A1A2 A2B2 B2B1 B1C1 C1D1 D1D2 D2C2 C2C1 C1C2 C2B2 B2A2 A2A1 A1B1 B1C1 C1C2 C2C1 C1C0 C0B0 B0A0 A0A1 A1A2 A2A3 A3B3 B3C3 C3D3 D3D2 D2D1 D1C1 C1B1 B1B0 B0C0 C0D0 D0D1 D1D2 D2D1 D1D0 D0C0 C0C1 C1C0 C0B0 B0C0 C0D0 D0D1 D1C1 C1C2 C2C3 C3B3 B3B2 B2C2 C2C3 C3D3 D3D2 D2D1 D1D0 D0C0 C0B0 B0B1 B1A1 A1A2 A2A3 A3B3 B3C3 C3D3 D3D2 D2D1 D1D0 D0C0 C0C1 C1C2 C2D2 D2D1 D1C1 C1C2 C2C3 C3D3 D3D2 D2D1 D1D0 D0C0 C0B0 B0A0 A0A1 A1A2 A2B2 B2B3 B3A3 A3A2"/>
    </vehicle>
    <vehicle id="103.0" type="type1" depart="0.00">
        <route edges="B2B3 B3B2 B2B1 B1A1 A1A2 A2A3 A3B3 B3B2 B2C2 C2D2 D2C2 C2C1 C1C0 C0D0 D0D1 D1D2 D2D3 D3C3 C3B3 B3B2 B2C2 C2C3 C3B3 B3A3 A3A2 A2B2 B2A2 A2A1 A1B1 B1C1 C1B1 B1B0 B0C0 C0C1 C1B1 B1B2 B2B3 B3A3 A3A2 A2A1 A1B1 B1A1 A1A0 A0B0 B0B1 B1A1 A1A0 A0B0 B0B1 B1B2 B2A2 A2A3 A3B3 B3A3 A3A2 A2B2 B2B3 B3B2 B2B3 B3A3 A3A2 A2B2 B2B1 B1A1 A1A0 A0B0 B0C0 C0D0 D0D1 D1C1 C1C2 C2D2 D2D3 D3C3 C3B3 B3C3 C3B3 B3A3 A3A2 A2B2 B2B1 B1B0 B0A0 A0A1 A1A2 A2A3 A3B3 B3C3 C3B3 B3C3 C3B3 B3B2 B2B3 B3C3 C3B3 B3A3 A3A2 A2A1 A1B1 B1C1 C1D1 D1D0 D0C0 C0C1 C1D1 D1D2 D2D3 D3C3 C3C2 C2C1 C1C0 C0C1 C1C0 C0D0 D0D1 D1C1 C1C2 C2C3 C3D3 D3D2 D2C2 C2B2 B2B1 B1B0 B0B1 B1C1 C1C0 C0B0 B0A0 A0A1 A1A2 A2A3 A3B3 B3B2 B2B1 B1C1 C1C2 C2B2 B2B1 B1A1 A1A2 A2A1 A1B1 B1C1 C1C0 C0C1 C1C0 C0B0 B0C0 C0C1 C1C0 C0D0 D0D1 D1D2 D2C2 C2D2 D2D3 D3C3 C3D3 D3D2 D2D1 D1C1 C1D1 D1D0 D0C0 C0B0 B0C0 C0C1 C1C2 C2C3 C3B3 B3B2 B2B1 B1C1 C1B1 B1A1 A1A0 A0B0 B0B1 B1B2 B2B3 B3A3 A3A2 A2B2 B2A2 A2A3 A3B3 B3A3 A3A2 A2B2 B2B3 B3C3 C3C2 C2C1 C1C2 C2B2 B2C2 C2D2 D2C2 C2C3 C3D3 D3D2 D2D1 D1C1 C1D1 D1C1 C1B1 B1A1 A1B1 B1C1 C1D1 D1D0 D0C0 C0B0 B0B1 B1B2 B2B3 B3A3 A3A2 A2B2 B2C2 C2D2 D2D3 D3C3 C3B3 B3A3 A3A2 A2A3 A3B3 B3C3 C3D3 D3D2 D2D1 D1D0 D0C0 C0B0 B0A0 A0A1 A1B1 B1C1 C1C2 C2C3 C3D3 D3D2 D2D1 D1D0 D0C0 C0D0 D0D1 D1D2 D2D1 D1C1 C1B1 B1A1 A1A0 A0B0 B0C0 C0C1 C1C2 C2B2 B2B1 B1A1 A1A0 A0B0 B0C0 C0D0 D0D1 D1D2 D2D3 D3C3 C3C2 C2B2 B2B1 B1B2 B2C2 C2C3 C3B3 B3B2 B2B1 B1B2 B2A2 A2A1 A1B1 B1C1 C1D1 D1C1 C1C2 C2D2 D2D1 D1D0 D0C0 C0D0 D0D1 D1D0 D0C0 C0D0 D0D1 D1C1 C1B1 B1B0 B0A0 A0A1 A1A2 A2A1 A1B1 B1B2 B2B1 B1A1 A1A0 A0B0 B0B1 B1B0 B0A0 A0A1 A1A0 A0B0 B0A0 A0A1 A1B1 B1B2 B2B3 B3A3 A3A2 A2A1 A1B1 B1C1 C1C2 C2B2 B2B3 B3A3 A3A2 A2B2 B2B3 B3A3 A3A2 A2B2 B2B3 B3C3 C3C2 C2D2 D2D1 D1C1 C1C0 C0C1 C1B1 B1B2 B2A2 A2A1 A1A2 A2A1 A1A2 A2A1 A1A2 A2B2 B2B3 B3A3 A3A2 A2B2 B2B3 B3A3 A3A2 A2B2 B2A2 A2B2 B2B1 B1B2 B2A2 A2A1 A1B1 B1A1 A1A2 A2A3 A3B3 B3C3 C3B3 B3B2 B2B1 B1A1 A1A2 A2B2 B2A2 A2A1 A1B1 B1C1 C1C0 C0B0 B0A0 A0A1 A1A2 A2A3 A3B3 B3C3 C3D3 D3D2 D2D1 D1D0 D0C0 C0B0 B0C0 C0D0 D0D1 D1D0 D0C0 C0B0 B0B1 B1A1 A1A2 A2B2 B2C2 C2D2 D2D3 D3C3 C3C2 C2C1 C1C2 C2B2 B2A2 A2A1 A1B1 B1B0 B0C0 C0C1 C1D1 D1C1 C1B1 B1B2 B2A2 A2B2 B2A2 A2A1 A1B1 B1B2 B2B3 B3C3 C3D3 D3D2 D2C2 C2C3 C3C2 C2D2 D2D3 D3C3 C3C2 C2B2 B2B1 B1C1 C1B1 B1B2 B2B3 B3A3 A3A2 A2A3 A3B3 B3B2 B2B3 B3A3 A3A2 A2A3 A3B3 B3C3 C3B3 B3B2 B2C2 C2D2 D2D1 D1C1 C1C2 C2C3 C3D3 D3D2 D2D1 D1C1 C1D1 D1C1 C1C0 C0D0 D0D1 D1C1 C1C2 C2D2 D2D3 D3C3 C3D3 D3D2 D2C2 C2B2 B2B1 B1B0 B0A0 A0A1 A1B1 B1B2 B2A2 A2B2 B2C2 C2C3 C3D3 D3D2"/>
    </vehicle>
    <vehicle id="104.0" type="type1" depart="0.00">
        <route edges="B2B1 B1C1 C1B1 B1B0 B0C0 C0D0 D0D1 D1D0 D0C0 C0D0 D0D1 D1C1 C1C0 C0D0 D0D1 D1C1 C1D1 D1D2 D2C2 C2C3 C3B3 B3B2 B2C2 C2C3 C3B3 B3A3 A3A2 A2A1 A1B1 B1B0 B0C0 C0C1 C1D1 D1D0 D0C0 C0B0 B0A0 A0A1 A1B1 B1B2 B2B1 B1B0 B0C0 C0D0 D0D1 D1D0 D0C0 C0D0 D0D1 D1C1 C1C0 C0D0 D0D1 D1C1 C1C2 C2D2 D2D3 D3C3 C3C2 C2D2 D2D1 D1C1 C1D1 D1D2 D2D1 D1D0 D0C0 C0B0 B0B1 B1A1 A1A0 A0B0 B0B1 B1C1 C1C2 C2B2 B2B1 B1B0 B0C0 C0B0 B0A0 A0A1 A1B1 B1B2 B2A2 A2B2 B2C2 C2C3 C3D3 D3D2 D2C2 C2C1 C1C2 C2C1 C1B1 B1B2 B2B3 B3B2 B2C2 C2C1 C1C0 C0D0 D0D1 D1C1 C1C0 C0B0 B0A0 A0A1 A1B1 B1A1 A1A0 A0B0 B0B1 B1B0 B0C0 C0C1 C1C2 C2B2 B2A2 A2B2 B2B3 B3A3 A3A2 A2A3 A3B3 B3B2 B2B1 B1B0 B0C0 C0C1 C1C2 C2C3 C3B3 B3A3 A3A2 A2A1 A1A0 A0B0 B0B1 B1A1 A1B1 B1A1 A1A0 A0B0 B0B1 B1B2 B2B3 B3A3 A3A2 A2B2 B2C2 C2D2 D2D3 D3C3 C3B3 B3A3 A3A2 A2A1 A1B1 B1B0 B0C0 C0C1 C1C0 C0D0 D0D1 D1C1 C1D1 D1C1 C1C2 C2C1 C1D1 D1D2 D2D1 D1D0 D0C0 C0C1 C1D1 D1D0 D0C0 C0B0 B0A0 A0A1 A1A2 A2A3 A3B3 B3B2 B2A2 A2A1 A1A0 A0B0 B0C0 C0B0 B0C0 C0C1 C1C2 C2C1 C1B1 B1B0 B0C0 C0B0 B0B1 B1B2 B2B1 B1A1 A1B1 B1B2 B2A2 A2A1 A1B1 B1B2 B2A2 A2A3 A3B3 B3C3 C3C2 C2B2 B2B1 B1B2 B2A2 A2A1 A1B1 B1B2 B2C2 C2D2 D2D1 D1D2 D2D1 D1D0 D0C0 C0C1 C1C2 C2B2 B2C2 C2B2 B2C2 C2D2 D2D1 D1C1 C1B1 B1C1 C1C0 C0B0 B0B1 B1A1 A1A0 A0B0 B0B1 B1B2 B2A2 A2A1 A1B1 B1C1 C1D1 D1D2 D2D3 D3C3 C3B3 B3B2 B2C2 C2C1 C1B1 B1C1 C1B1 B1C1 C1D1 D1D0 D0C0 C0B0 B0C0 C0C1 C1C2 C2B2 B2B3 B3B2 B2B1 B1C1 C1C0 C0B0 B0C0 C0C1 C1B1 B1B0 B0A0 A0A1 A1B1 B1B0 B0A0 A0A1 A1B1 B1B2 B2B3 B3A3 A3A2 A2A3 A3B3 B3C3 C3C2 C2D2 D2C2 C2C3 C3C2 C2B2 B2A2 A2A1 A1B1 B1B2 B2A2 A2B2 B2C2 C2C1 C1D1 D1D2 D2C2 C2D2 D2C2 C2C3 C3B3 B3B2 B2B1 B1B2 B2B3 B3A3 A3A2 A2A3 A3B3 B3C3 C3D3 D3D2 D2C2 C2B2 B2C2 C2C1 C1B1 B1A1 A1A0 A0B0 B0C0 C0B0 B0C0 C0C1 C1C2 C2B2 B2C2 C2C3 C3C2 C2C1 C1D1 D1D2 D2D3 D3C3 C3C2 C2C3 C3C2 C2C1 C1D1 D1C1 C1B1 B1A1 A1A2 A2B2 B2A2 A2A3 A3B3 B3C3 C3D3 D3D2 D2C2 C2C3 C3D3 D3D2 D2C2 C2D2 D2D1 D1D0 D0C0 C0C1 C1B1 B1B2 B2B1 B1C1 C1C2 C2B2 B2A2 A2A1 A1B1 B1B0 B0A0 A0A1 A1B1 B1C1 C1C0 C0C1 C1B1 B1B2 B2B3 B3B2 B2A2 A2A1 A1B1 B1B0 B0C0 C0B0 B0A0 A0A1 A1A2 A2A1 A1A0 A0B0 B0A0 A0A1 A1A2 A2A3 A3B3 B3C3 C3B3 B3A3 A3A2 A2A3 A3B3 B3C3 C3C2 C2C1 C1D1 D1D2 D2D1 D1C1 C1B1 B1B0 B0A0 A0A1 A1B1 B1B0 B0A0 A0A1 A1A2 A2A1 A1B1 B1B2 B2B3 B3B2 B2A2 A2A1 A1B1 B1B2 B2B3 B3B2 B2B1 B1B0 B0C0 C0C1 C1D1 D1D0 D0C0 C0C1 C1D1 D1C1 C1D1 D1D0 D0C0 C0B0 B0C0 C0C1 C1C2 C2B2 B2B3 B3C3 C3D3 D3D2 D2D1 D1D2 D2C2 C2C1 C1D1 D1D2 D2D3 D3C3 C3D3 D3D2 D2C2 C2C1 C1C2 C2C3 C3B3 B3C3 C3C2 C2D2 D2D3 D3C3 C3C2 C2D2 D2D3 D3C3 C3C2 C2C1 C1D1 D1D2 D2D1 D1D2"/>
    </vehicle>
    <vehicle id="105.0" type="type1" depart="0.00">
        <route edges="B0C0 C0D0 D0D1 D1C1 C1C0 C0D0 D0D1 D1C1 C1C0 C0C1 C1C2 C2C3 C3D3 D3D2 D2D1 D1D2 D2D3 D3C3 C3C2 C2C1 C1C2 C2B2 B2C2 C2C3 C3D3 D3D2 D2D1 D1D2 D2C2 C2C1 C1C0 C0D0 D0D1 D1D2 D2C2 C2C1 C1C0 C0D0 D0D1 D1D0 D0C0 C0C1 C1D1 D1D2 D2D1 D1D0 D0C0 C0D0 D0D1 D1D0 D0C0 C0D0 D0D1 D1C1 C1C0 C0B0 B0C0 C0D0 D0D1 D1D0 D0C0 C0B0 B0A0 A0A1 A1A2 A2A3 A3B3 B3C3 C3B3 B3A3 A3A2 A2A1 A1A2 A2B2 B2C2 C2D2 D2C2 C2C3 C3B3 B3B2 B2A2 A2A1 A1B1 B1C1 C1C2 C2C1 C1B1 B1B2 B2B3 B3B2 B2B3 B3B2 B2B1 B1B2 B2B3 B3B2 B2B1 B1A1 A1A0 A0B0 B0B1 B1B2 B2B1 B1C1 C1C2 C2C3 C3C2 C2D2 D2D3 D3C3 C3D3 D3D2 D2C2 C2B2 B2A2 A2A1 A1A0 A0B0 B0A0 A0A1 A1B1 B1B0 B0A0 A0A1 A1B1 B1C1 C1C2 C2D2 D2D3 D3C3 C3C2 C2D2 D2D1 D1C1 C1B1 B1B0 B0C0 C0D0 D0D1 D1D0 D0C0 C0B0 B0A0 A0A1 A1A2 A2A1 A1B1 B1B2 B2C2 C2C1 C1C2 C2D2 D2D3 D3C3 C3B3 B3C3 C3C2 C2B2 B2A2 A2A1 A1A2 A2A3 A3B3 B3C3 C3B3 B3B2 B2C2 C2C1 C1C0 C0C1 C1C0 C0C1 C1B1 B1B0 B0C0 C0C1 C1C2 C2D2 D2D1 D1D2 D2D1 D1C1 C1B1 B1B2 B2C2 C2C3 C3D3 D3D2 D2C2 C2B2 B2B3 B3A3 A3A2 A2A3 A3B3 B3B2 B2C2 C2C1 C1D1 D1C1 C1D1 D1D0 D0C0 C0B0 B0C0 C0C1 C1C2 C2C3 C3B3 B3A3 A3A2 A2B2 B2C2 C2D2 D2D3 D3C3 C3D3 D3D2 D2D1 D1D2 D2C2 C2C1 C1D1 D1D0 D0C0 C0D0 D0D1 D1C1 C1C2 C2B2 B2B1 B1C1 C1C0 C0C1 C1C2 C2B2 B2A2 A2A1 A1A0 A0B0 B0B1 B1A1 A1A2 A2B2 B2C2 C2C1 C1C0 C0D0 D0D1 D1D0 D0C0 C0B0 B0B1 B1C1 C1D1 D1D2 D2C2 C2C3 C3D3 D3D2 D2D3 D3C3 C3C2 C2C3 C3B3 B3C3 C3C2 C2D2 D2C2 C2C1 C1B1 B1B0 B0B1 B1A1 A1A0 A0B0 B0B1 B1A1 A1A0 A0B0 B0C0 C0D0 D0D1 D1C1 C1C0 C0B0 B0C0 C0D0 D0D1 D1C1 C1C2 C2B2 B2B3 B3C3 C3B3 B3A3 A3A2 A2A3 A3B3 B3A3 A3A2 A2A1 A1A2 A2B2 B2B3 B3A3 A3A2 A2B2 B2B1 B1B2 B2B3 B3A3 A3A2 A2A1 A1B1 B1B0 B0C0 C0C1 C1B1 B1A1 A1B1 B1B0 B0C0 C0C1 C1D1 D1D2 D2D3 D3C3 C3C2 C2C1 C1C0 C0B0 B0A0 A0A1 A1A2 A2A1 A1B1 B1B2 B2B1 B1C1 C1C2 C2D2 D2D1 D1D0 D0C0 C0B0 B0B1 B1C1 C1B1 B1C1 C1C2 C2D2 D2C2 C2C3 C3C2 C2C1 C1B1 B1B2 B2A2 A2A3 A3B3 B3B2 B2C2 C2C1 C1B1 B1A1 A1B1 B1C1 C1D1 D1D0 D0C0 C0B0 B0A0 A0A1 A1B1 B1C1 C1C0 C0D0 D0D1 D1D2 D2D3 D3C3 C3D3 D3D2 D2D1 D1D0 D0C0 C0C1 C1B1 B1C1 C1B1 B1C1 C1C0 C0D0 D0D1 D1D0 D0C0 C0C1 C1D1 D1D0 D0C0 C0D0 D0D1 D1C1 C1B1 B1B2 B2B3 B3A3 A3A2 A2B2 B2C2 C2B2 B2C2 C2D2 D2C2 C2B2 B2B3 B3B2 B2B1 B1B2 B2A2 A2A1 A1B1 B1A1 A1A0 A0B0 B0B1 B1B2 B2C2 C2B2 B2C2 C2C3 C3B3 B3B2 B2C2 C2C1 C1C0 C0B0 B0A0 A0A1 A1A2 A2B2 B2A2 A2A3 A3B3 B3C3 C3B3 B3A3 A3A2 A2A1 A1B1 B1B2 B2C2 C2C3 C3C2 C2D2 D2D3 D3C3 C3D3 D3D2 D2D1 D1C1 C1C2 C2B2 B2C2 C2D2 D2D1 D1D2 D2C2 C2B2 B2B1 B1A1 A1A0 A0B0 B0B1 B1A1 A1A0 A0B0 B0C0 C0D0 D0D1 D1C1 C1C2 C2C3 C3B3 B3C3 C3C2 C2D2 D2D1 D1D0 D0C0 C0C1 C1C2 C2B2 B2B1 B1C1 C1D1 D1D2"/>
    </vehicle>
    <vehicle id="106.0" type="type1" depart="0.00">
        <route edges="B3A3 A3A2 A2A3 A3B3 B3B2 B2A2 A2A3 A3B3 B3C3 C3D3 D3D2 D2C2 C2B2 B2A2 A2B2 B2B1 B1C1 C1C0 C0D0 D0D1 D1D2 D2C2 C2C3 C3D3 D3D2 D2D1 D1C1 C1B1 B1C1 C1C2 C2B2 B2A2 A2A3 A3B3 B3B2 B2B1 B1B0 B0A0 A0A1 A1A0 A0B0 B0B1 B1A1 A1A0 A0B0 B0C0 C0C1 C1C2 C2B2 B2B1 B1B2 B2B3 B3C3 C3D3 D3D2 D2D1 D1D0 D0C0 C0B0 B0A0 A0A1 A1A0 A0B0 B0A0 A0A1 A1B1 B1B0 B0C0 C0B0 B0A0 A0A1 A1A2 A2B2 B2C2 C2C1 C1C0 C0D0 D0D1 D1C1 C1C2 C2C3 C3B3 B3A3 A3A2 A2B2 B2B1 B1C1 C1C0 C0D0 D0D1 D1D2 D2D3 D3C3 C3C2 C2C1 C1D1 D1C1 C1B1 B1B0 B0A0 A0A1 A1A2 A2A3 A3B3 B3B2 B2B3 B3B2 B2B1 B1B2 B2C2 C2D2 D2C2 C2B2 B2A2 A2A3 A3B3 B3A3 A3A2 A2B2 B2C2 C2D2 D2D3 D3C3 C3B3 B3A3 A3A2 A2B2 B2B3 B3C3 C3C2 C2C1 C1C2 C2C3 C3D3 D3D2 D2D1 D1D0 D0C0 C0C1 C1D1 D1C1 C1C0 C0C1 C1C2 C2C1 C1D1 D1D2 D2C2 C2C3 C3D3 D3D2 D2D1 D1D2 D2D1 D1D2 D2C2 C2C1 C1C2 C2C3 C3D3 D3D2 D2C2 C2C1 C1C0 C0C1 C1C0 C0B0 B0C0 C0C1 C1B1 B1B2 B2B3 B3C3 C3B3 B3B2 B2A2 A2B2 B2A2 A2A1 A1B1 B1A1 A1A0 A0B0 B0C0 C0C1 C1B1 B1A1 A1A0 A0B0 B0C0 C0C1 C1D1 D1D2 D2D3 D3C3 C3C2 C2B2 B2C2 C2C1 C1B1 B1B0 B0C0 C0B0 B0A0 A0A1 A1B1 B1B0 B0A0 A0A1 A1A2 A2B2 B2C2 C2C3 C3C2 C2C1 C1B1 B1A1 A1A0 A0B0 B0A0 A0A1 A1B1 B1C1 C1D1 D1D2 D2D3 D3C3 C3C2 C2D2 D2D3 D3C3 C3C2 C2C1 C1C0 C0C1 C1C0 C0B0 B0C0 C0C1 C1B1 B1B2 B2A2 A2A3 A3B3 B3C3 C3C2 C2B2 B2A2 A2A1 A1B1 B1C1 C1D1 D1D2 D2D1 D1D0 D0C0 C0B0 B0C0 C0C1 C1D1 D1D0 D0C0 C0B0 B0A0 A0A1 A1A2 A2A1 A1B1 B1C1 C1B1 B1B2 B2B3 B3B2 B2B3 B3A3 A3A2 A2B2 B2B1 B1C1 C1D1 D1D0 D0C0 C0C1 C1C0 C0B0 B0A0 A0A1 A1A2 A2A3 A3B3 B3B2 B2A2 A2A1 A1B1 B1B0 B0B1 B1C1 C1D1 D1C1 C1B1 B1A1 A1A2 A2A3 A3B3 B3B2 B2B1 B1B0 B0C0 C0D0 D0D1 D1C1 C1D1 D1D2 D2D3 D3C3 C3C2 C2D2 D2D3 D3C3 C3B3 B3B2 B2C2 C2C3 C3D3 D3D2 D2D1 D1C1 C1C0 C0D0 D0D1 D1C1 C1C0 C0C1 C1B1 B1A1 A1A0 A0B0 B0B1 B1B2 B2B3 B3C3 C3B3 B3C3 C3D3 D3D2 D2D1 D1D2 D2D1 D1D2 D2D3 D3C3 C3C2 C2C1 C1B1 B1B2 B2B3 B3B2 B2C2 C2D2 D2D3 D3C3 C3C2 C2B2 B2C2 C2D2 D2D1 D1C1 C1D1 D1C1 C1B1 B1B2 B2B3 B3B2 B2C2 C2D2 D2D3 D3C3 C3D3 D3D2 D2D3 D3C3 C3C2 C2C1 C1D1 D1D0 D0C0 C0D0 D0D1 D1D2 D2D1 D1D0 D0C0 C0B0 B0A0 A0A1 A1A2 A2A1 A1B1 B1B0 B0B1 B1A1 A1A2 A2B2 B2C2 C2C3 C3D3 D3D2 D2D1 D1D0 D0C0 C0B0 B0B1 B1A1 A1B1 B1B0 B0B1 B1C1 C1B1 B1A1 A1B1 B1C1 C1D1 D1D0 D0C0 C0B0 B0A0 A0A1 A1A0 A0B0 B0B1 B1B2 B2B1 B1C1 C1D1 D1D2 D2C2 C2C1 C1B1 B1A1 A1B1 B1B2 B2B3 B3A3 A3A2 A2A1 A1B1 B1B2 B2C2 C2C3 C3D3 D3D2 D2C2 C2C3 C3B3 B3C3 C3B3 B3A3 A3A2 A2B2 B2B3 B3A3 A3A2 A2B2 B2B1 B1A1 A1A2 A2A1 A1B1 B1A1 A1B1 B1C1 C1C2 C2B2 B2A2 A2A1 A1A0 A0B0 B0B1 B1C1 C1C0 C0D0 D0D1 D1C1 C1C2 C2D2 D2D3 D3C3 C3D3 D3D2 D2D1 D1D0 D0C0 C0C1 C1B1 B1A1 A1A2 A2B2 B2C2"/>
    </vehicle>
    <vehicle id="107.0" type="type1" depart="0.00">
        <route edges="D2D3 D3C3 C3C2 C2C1 C1C2 C2C3 C3D3 D3D2 D2D1 D1D0 D0C0 C0B0 B0A0 A0A1 A1A2 A2B2 B2B1 B1B0 B0A0 A0A1 A1A2 A2A1 A1A0 A0B0 B0A0 A0A1 A1B1 B1A1 A1A0 A0B0 B0B1 B1A1 A1A2 A2A3 A3B3 B3B2 B2B1 B1C1 C1C0 C0B0 B0A0 A0A1 A1A2 A2B2 B2B3 B3A3 A3A2 A2A3 A3B3 B3C3 C3D3 D3D2 D2D3 D3C3 C3C2 C2C1 C1D1 D1D0 D0C0 C0B0 B0A0 A0A1 A1A2 A2A3 A3B3 B3C3 C3D3 D3D2 D2C2 C2B2 B2A2 A2A3 A3B3 B3C3 C3D3 D3D2 D2C2 C2D2 D2D3 D3C3 C3C2 C2C1 C1D1 D1C1 C1D1 D1D2 D2C2 C2C3 C3B3 B3B2 B2C2 C2B2 B2B1 B1C1 C1D1 D1D2 D2C2 C2B2 B2A2 A2A3 A3B3 B3B2 B2B1 B1B0 B0C0 C0B0 B0C0 C0C1 C1C2 C2C3 C3D3 D3D2 D2D1 D1D0 D0C0 C0C1 C1D1 D1D0 D0C0 C0C1 C1C2 C2C1 C1B1 B1B0 B0C0 C0C1 C1B1 B1A1 A1A0 A0B0 B0B1 B1B2 B2A2 A2A1 A1A0 A0B0 B0A0 A0A1 A1A2 A2A3 A3B3 B3B2 B2B1 B1A1 A1A0 A0B0 B0C0 C0D0 D0D1 D1D0 D0C0 C0B0 B0A0 A0A1 A1A2 A2B2 B2C2 C2C3 C3B3 B3B2 B2A2 A2B2 B2B3 B3C3 C3D3 D3D2 D2D1 D1D2 D2D3 D3C3 C3B3 B3C3 C3C2 C2B2 B2B1 B1C1 C1C2 C2B2 B2C2 C2C1 C1C2 C2D2 D2D3 D3C3 C3D3 D3D2 D2D1 D1C1 C1C0 C0C1 C1C2 C2C1 C1C0 C0C1 C1D1 D1D2 D2D3 D3C3 C3C2 C2C1 C1B1 B1A1 A1A0 A0B0 B0B1 B1B2 B2A2 A2B2 B2A2 A2A3 A3B3 B3C3 C3D3 D3D2 D2D3 D3C3 C3B3 B3C3 C3B3 B3B2 B2A2 A2B2 B2B1 B1B2 B2C2 C2D2 D2D1 D1D0 D0C0 C0C1 C1C0 C0D0 D0D1 D1C1 C1C2 C2C3 C3B3 B3B2 B2C2 C2D2 D2D3 D3C3 C3B3 B3B2 B2C2 C2B2 B2A2 A2A3 A3B3 B3C3 C3D3 D3D2 D2D3 D3C3 C3D3 D3D2 D2D3 D3C3 C3B3 B3A3 A3A2 A2A1 A1A2 A2A1 A1A0 A0B0 B0B1 B1C1 C1C0 C0B0 B0C0 C0C1 C1C2 C2D2 D2D1 D1D2 D2D3 D3C3 C3C2 C2C1 C1D1 D1C1 C1D1 D1C1 C1B1 B1A1 A1B1 B1C1 C1C2 C2C3 C3B3 B3B2 B2A2 A2A1 A1B1 B1B0 B0C0 C0B0 B0B1 B1C1 C1B1 B1A1 A1A2 A2A1 A1B1 B1C1 C1D1 D1D2 D2D1 D1C1 C1B1 B1B2 B2A2 A2A3 A3B3 B3A3 A3A2 A2A1 A1A2 A2A3 A3B3 B3C3 C3D3 D3D2 D2C2 C2C1 C1B1 B1B2 B2A2 A2A1 A1A0 A0B0 B0C0 C0B0 B0B1 B1A1 A1A2 A2B2 B2C2 C2D2 D2D3 D3C3 C3D3 D3D2 D2D1 D1C1 C1B1 B1A1 A1A2 A2A3 A3B3 B3C3 C3C2 C2B2 B2A2 A2A3 A3B3 B3C3 C3D3 D3D2 D2D1 D1D0 D0C0 C0B0 B0A0 A0A1 A1B1 B1B0 B0C0 C0B0 B0A0 A0A1 A1A2 A2A1 A1B1 B1C1 C1C2 C2B2 B2B1 B1C1 C1B1 B1B2 B2C2 C2D2 D2C2 C2C3 C3B3 B3B2 B2B3 B3A3 A3A2 A2B2 B2B3 B3A3 A3A2 A2B2 B2A2 A2A1 A1A0 A0B0 B0C0 C0C1 C1B1 B1A1 A1A2 A2B2 B2B1 B1B2 B2A2 A2A1 A1B1 B1B2 B2B3 B3A3 A3A2 A2A1 A1A2 A2A3 A3B3 B3C3 C3D3 D3D2 D2C2 C2D2 D2C2 C2C3 C3C2 C2D2 D2D3 D3C3 C3B3 B3C3 C3D3 D3D2 D2D1 D1D0 D0C0 C0B0 B0A0 A0A1 A1B1 B1A1 A1A2 A2A3 A3B3 B3C3 C3B3 B3B2 B2C2 C2C3 C3D3 D3D2 D2D3 D3C3 C3B3 B3B2 B2C2 C2B2 B2B3 B3A3 A3A2 A2A3 A3B3 B3B2 B2A2 A2A1 A1A0 A0B0 B0A0 A0A1 A1B1 B1B0 B0C0 C0B0 B0A0 A0A1 A1A2 A2A3 A3B3 B3B2 B2B1 B1C1 C1D1 D1D0 D0C0 C0D0 D0D1 D1C1 C1B1 B1B0 B0A0 A0A1 A1A0 A0B0 B0A0 A0A1 A1A2 A2A1"/>
    </vehicle>
    <vehicle id="108.0" type="type1" depart="0.00">