<net xmlns:xsi="http://www.w3.org/2001/XMLSchema-instance" version="1.20" junctionCornerDetail="5" limitTurnSpeed="5.50" avoidOverlap="0" xsi:noNamespaceSchemaLocation="http://sumo.dlr.de/xsd/net_file.xsd">

    <location netOffset="0.00,0.00" convBoundary="0.00,0.00,1800.00,1800.00" origBoundary="0.00,0.00,900.00,900.00" projParameter="!" />

    <edge id=":A0_0" function="internal">
        <lane id=":A0_0_0" index="0" speed="8.96" length="18.06" shape="-4.80,6.40 -4.10,1.50 -2.00,-2.00 1.50,-4.10 6.40,-4.80" />
        <lane id=":A0_0_1" index="1" speed="7.66" length="12.90" shape="-1.60,6.40 -1.10,2.90 0.40,0.40 2.90,-1.10 6.40,-1.60" />
    </edge>
    <edge id=":A0_2" function="internal">
        <lane id=":A0_2_0" index="0" speed="3.90" length="2.58" shape="6.40,4.80 5.70,4.90 5.20,5.20 4.90,5.70 4.80,6.40" />
        <lane id=":A0_2_1" index="1" speed="6.08" length="7.74" shape="6.40,1.60 4.30,1.90 2.80,2.80 1.90,4.30 1.60,6.40" />
    </edge>
    <edge id=":A1_0" function="internal">
        <lane id=":A1_0_0" index="0" speed="13.89" length="20.80" shape="-4.80,610.40 -4.80,589.60" />
        <lane id=":A1_0_1" index="1" speed="13.89" length="20.80" shape="-1.60,610.40 -1.60,589.60" />
    </edge>
    <edge id=":A1_2" function="internal">
        <lane id=":A1_2_0" index="0" speed="9.26" length="5.01" shape="-1.60,610.40 -0.89,605.44" />
    </edge>
    <edge id=":A1_3" function="internal">
        <lane id=":A1_3_0" index="0" speed="3.65" length="1.44" shape="-1.60,610.40 -0.80,609.20" />
    </edge>
    <edge id=":A1_11" function="internal">
        <lane id=":A1_11_0" index="0" speed="9.26" length="14.34" shape="-0.89,605.44 -0.85,605.15 1.40,601.40 5.15,599.15 10.40,598.40" />
    </edge>
    <edge id=":A1_12" function="internal">
        <lane id=":A1_12_0" index="0" speed="3.65" length="3.23" shape="-0.80,609.20 0.00,608.80 0.80,609.20 1.60,610.40" />
    </edge>
    <edge id=":A1_4" function="internal">
        <lane id=":A1_4_0" index="0" speed="6.51" length="9.03" shape="10.40,604.80 7.95,605.15 6.20,606.20 5.15,607.95 4.80,610.40" />
    </edge>
    <edge id=":A1_5" function="internal">
        <lane id=":A1_5_0" index="0" speed="9.26" length="19.35" shape="10.40,601.60 5.15,600.85 1.40,598.60 -0.85,594.85 -1.60,589.60" />
    </edge>
    <edge id=":A1_6" function="internal">
        <lane id=":A1_6_0" index="0" speed="3.65" length="2.34" shape="10.40,601.60 9.20,600.80 8.80,600.00" />
    </edge>
    <edge id=":A1_13" function="internal">
        <lane id=":A1_13_0" index="0" speed="3.65" length="2.34" shape="8.80,600.00 9.20,599.20 10.40,598.40" />
    </edge>
    <edge id=":A1_7" function="internal">
        <lane id=":A1_7_0" index="0" speed="6.51" length="9.03" shape="4.80,589.60 5.15,592.05 6.20,593.80 7.95,594.85 10.40,595.20" />
    </edge>
    <edge id=":A1_8" function="internal">
        <lane id=":A1_8_0" index="0" speed="13.89" length="20.80" shape="4.80,589.60 4.80,610.40" />
        <lane id=":A1_8_1" index="1" speed="13.89" length="20.80" shape="1.60,589.60 1.60,610.40" />
    </edge>
    <edge id=":A1_10" function="internal">
        <lane id=":A1_10_0" index="0" speed="3.65" length="1.44" shape="1.60,589.60 0.80,590.80" />
    </edge>
    <edge id=":A1_14" function="internal">
        <lane id=":A1_14_0" index="0" speed="3.65" length="3.23" shape="0.80,590.80 0.00,591.20 -0.80,590.80 -1.60,589.60" />
    </edge>
    <edge id=":A2_0" function="internal">
        <lane id=":A2_0_0" index="0" speed="13.89" length="20.80" shape="-4.80,1210.40 -4.80,1189.60" />
        <lane id=":A2_0_1" index="1" speed="13.89" length="20.80" shape="-1.60,1210.40 -1.60,1189.60" />
    </edge>
    <edge id=":A2_2" function="internal">
        <lane id=":A2_2_0" index="0" speed="9.26" length="5.01" shape="-1.60,1210.40 -0.89,1205.44" />
    </edge>
    <edge id=":A2_3" function="internal">
        <lane id=":A2_3_0" index="0" speed="3.65" length="1.44" shape="-1.60,1210.40 -0.80,1209.20" />
    </edge>
    <edge id=":A2_11" function="internal">
        <lane id=":A2_11_0" index="0" speed="9.26" length="14.34" shape="-0.89,1205.44 -0.85,1205.15 1.40,1201.40 5.15,1199.15 10.40,1198.40" />
    </edge>
    <edge id=":A2_12" function="internal">
        <lane id=":A2_12_0" index="0" speed="3.65" length="3.23" shape="-0.80,1209.20 0.00,1208.80 0.80,1209.20 1.60,1210.40" />
    </edge>
    <edge id=":A2_4" function="internal">
        <lane id=":A2_4_0" index="0" speed="6.51" length="9.03" shape="10.40,1204.80 7.95,1205.15 6.20,1206.20 5.15,1207.95 4.80,1210.40" />
    </edge>
    <edge id=":A2_5" function="internal">
        <lane id=":A2_5_0" index="0" speed="9.26" length="19.35" shape="10.40,1201.60 5.15,1200.85 1.40,1198.60 -0.85,1194.85 -1.60,1189.60" />
    </edge>
    <edge id=":A2_6" function="internal">
        <lane id=":A2_6_0" index="0" speed="3.65" length="2.34" shape="10.40,1201.60 9.20,1200.80 8.80,1200.00" />
    </edge>
    <edge id=":A2_13" function="internal">
        <lane id=":A2_13_0" index="0" speed="3.65" length="2.34" shape="8.80,1200.00 9.20,1199.20 10.40,1198.40" />
    </edge>
    <edge id=":A2_7" function="internal">
        <lane id=":A2_7_0" index="0" speed="6.51" length="9.03" shape="4.80,1189.60 5.15,1192.05 6.20,1193.80 7.95,1194.85 10.40,1195.20" />
    </edge>
    <edge id=":A2_8" function="internal">
        <lane id=":A2_8_0" index="0" speed="13.89" length="20.80" shape="4.80,1189.60 4.80,1210.40" />
        <lane id=":A2_8_1" index="1" speed="13.89" length="20.80" shape="1.60,1189.60 1.60,1210.40" />
    </edge>
    <edge id=":A2_10" function="internal">
        <lane id=":A2_10_0" index="0" speed="3.65" length="1.44" shape="1.60,1189.60 0.80,1190.80" />
    </edge>
    <edge id=":A2_14" function="internal">
        <lane id=":A2_14_0" index="0" speed="3.65" length="3.23" shape="0.80,1190.80 0.00,1191.20 -0.80,1190.80 -1.60,1189.60" />
    </edge>
    <edge id=":A3_0" function="internal">
        <lane id=":A3_0_0" index="0" speed="8.96" length="18.06" shape="6.40,1804.80 1.50,1804.10 -2.00,1802.00 -4.10,1798.50 -4.80,1793.60" />
        <lane id=":A3_0_1" index="1" speed="7.66" length="12.90" shape="6.40,1801.60 2.90,1801.10 0.40,1799.60 -1.10,1797.10 -1.60,1793.60" />
    </edge>
    <edge id=":A3_2" function="internal">
        <lane id=":A3_2_0" index="0" speed="3.90" length="2.58" shape="4.80,1793.60 4.90,1794.30 5.20,1794.80 5.70,1795.10 6.40,1795.20" />
        <lane id=":A3_2_1" index="1" speed="6.08" length="7.74" shape="1.60,1793.60 1.90,1795.70 2.80,1797.20 4.30,1798.10 6.40,1798.40" />
    </edge>
    <edge id=":B0_0" function="internal">
        <lane id=":B0_0_0" index="0" speed="6.51" length="9.03" shape="595.20,10.40 594.85,7.95 593.80,6.20 592.05,5.15 589.60,4.80" />
    </edge>
    <edge id=":B0_1" function="internal">
        <lane id=":B0_1_0" index="0" speed="9.26" length="19.35" shape="598.40,10.40 599.15,5.15 601.40,1.40 605.15,-0.85 610.40,-1.60" />
    </edge>
    <edge id=":B0_2" function="internal">
        <lane id=":B0_2_0" index="0" speed="3.65" length="2.34" shape="598.40,10.40 599.20,9.20 600.00,8.80" />
    </edge>
    <edge id=":B0_11" function="internal">
        <lane id=":B0_11_0" index="0" speed="3.65" length="2.34" shape="600.00,8.80 600.80,9.20 601.60,10.40" />
    </edge>
    <edge id=":B0_3" function="internal">
        <lane id=":B0_3_0" index="0" speed="6.51" length="9.03" shape="610.40,4.80 607.95,5.15 606.20,6.20 605.15,7.95 604.80,10.40" />
    </edge>
    <edge id=":B0_4" function="internal">
        <lane id=":B0_4_0" index="0" speed="13.89" length="20.80" shape="610.40,4.80 589.60,4.80" />
        <lane id=":B0_4_1" index="1" speed="13.89" length="20.80" shape="610.40,1.60 589.60,1.60" />
    </edge>
    <edge id=":B0_6" function="internal">
        <lane id=":B0_6_0" index="0" speed="3.65" length="1.44" shape="610.40,1.60 609.20,0.80" />
    </edge>
    <edge id=":B0_12" function="internal">
        <lane id=":B0_12_0" index="0" speed="3.65" length="3.23" shape="609.20,0.80 608.80,0.00 609.20,-0.80 610.40,-1.60" />
    </edge>
    <edge id=":B0_7" function="internal">
        <lane id=":B0_7_0" index="0" speed="13.89" length="20.80" shape="589.60,-4.80 610.40,-4.80" />
        <lane id=":B0_7_1" index="1" speed="13.89" length="20.80" shape="589.60,-1.60 610.40,-1.60" />
    </edge>
    <edge id=":B0_9" function="internal">
        <lane id=":B0_9_0" index="0" speed="9.26" length="5.01" shape="589.60,-1.60 594.56,-0.89" />
    </edge>
    <edge id=":B0_10" function="internal">
        <lane id=":B0_10_0" index="0" speed="3.65" length="1.44" shape="589.60,-1.60 590.80,-0.80" />
    </edge>
    <edge id=":B0_13" function="internal">
        <lane id=":B0_13_0" index="0" speed="9.26" length="14.34" shape="594.56,-0.89 594.85,-0.85 598.60,1.40 600.85,5.15 601.60,10.40" />
    </edge>
    <edge id=":B0_14" function="internal">
        <lane id=":B0_14_0" index="0" speed="3.65" length="3.23" shape="590.80,-0.80 591.20,0.00 590.80,0.80 589.60,1.60" />
    </edge>
    <edge id=":B1_0" function="internal">
        <lane id=":B1_0_0" index="0" speed="6.51" length="9.03" shape="595.20,610.40 594.85,607.95 593.80,606.20 592.05,605.15 589.60,604.80" />
    </edge>
    <edge id=":B1_1" function="internal">
        <lane id=":B1_1_0" index="0" speed="13.89" length="20.80" shape="595.20,610.40 595.20,589.60" />
        <lane id=":B1_1_1" index="1" speed="13.89" length="20.80" shape="598.40,610.40 598.40,589.60" />
    </edge>
    <edge id=":B1_3" function="internal">
        <lane id=":B1_3_0" index="0" speed="9.26" length="5.01" shape="598.40,610.40 599.11,605.44" />
    </edge>
    <edge id=":B1_4" function="internal">
        <lane id=":B1_4_0" index="0" speed="3.65" length="1.44" shape="598.40,610.40 599.20,609.20" />
    </edge>
    <edge id=":B1_20" function="internal">
        <lane id=":B1_20_0" index="0" speed="9.26" length="14.34" shape="599.11,605.44 599.15,605.15 601.40,601.40 605.15,599.15 610.40,598.40" />
    </edge>
    <edge id=":B1_21" function="internal">
        <lane id=":B1_21_0" index="0" speed="3.65" length="3.23" shape="599.20,609.20 600.00,608.80 600.80,609.20 601.60,610.40" />
    </edge>
    <edge id=":B1_5" function="internal">
        <lane id=":B1_5_0" index="0" speed="6.51" length="9.03" shape="610.40,604.80 607.95,605.15 606.20,606.20 605.15,607.95 604.80,610.40" />
    </edge>
    <edge id=":B1_6" function="internal">
        <lane id=":B1_6_0" index="0" speed="13.89" length="20.80" shape="610.40,604.80 589.60,604.80" />
        <lane id=":B1_6_1" index="1" speed="13.89" length="20.80" shape="610.40,601.60 589.60,601.60" />
    </edge>
    <edge id=":B1_8" function="internal">
        <lane id=":B1_8_0" index="0" speed="9.26" length="5.01" shape="610.40,601.60 605.44,600.89" />
    </edge>
    <edge id=":B1_9" function="internal">
        <lane id=":B1_9_0" index="0" speed="3.65" length="1.44" shape="610.40,601.60 609.20,600.80" />
    </edge>
    <edge id=":B1_22" function="internal">
        <lane id=":B1_22_0" index="0" speed="9.26" length="14.34" shape="605.44,600.89 605.15,600.85 601.40,598.60 599.15,594.85 598.40,589.60" />
    </edge>
    <edge id=":B1_23" function="internal">
        <lane id=":B1_23_0" index="0" speed="3.65" length="3.23" shape="609.20,600.80 608.80,600.00 609.20,599.20 610.40,598.40" />
    </edge>
    <edge id=":B1_10" function="internal">
        <lane id=":B1_10_0" index="0" speed="6.51" length="9.03" shape="604.80,589.60 605.15,592.05 606.20,593.80 607.95,594.85 610.40,595.20" />
    </edge>
    <edge id=":B1_11" function="internal">
        <lane id=":B1_11_0" index="0" speed="13.89" length="20.80" shape="604.80,589.60 604.80,610.40" />
        <lane id=":B1_11_1" index="1" speed="13.89" length="20.80" shape="601.60,589.60 601.60,610.40" />
    </edge>
    <edge id=":B1_13" function="internal">
        <lane id=":B1_13_0" index="0" speed="9.26" length="5.01" shape="601.60,589.60 600.89,594.56" />
    </edge>
    <edge id=":B1_14" function="internal">
        <lane id=":B1_14_0" index="0" speed="3.65" length="1.44" shape="601.60,589.60 600.80,590.80" />
    </edge>
    <edge id=":B1_24" function="internal">
        <lane id=":B1_24_0" index="0" speed="9.26" length="14.34" shape="600.89,594.56 600.85,594.85 598.60,598.60 594.85,600.85 589.60,601.60" />
    </edge>
    <edge id=":B1_25" function="internal">
        <lane id=":B1_25_0" index="0" speed="3.65" length="3.23" shape="600.80,590.80 600.00,591.20 599.20,590.80 598.40,589.60" />
    </edge>
    <edge id=":B1_15" function="internal">
        <lane id=":B1_15_0" index="0" speed="6.51" length="9.03" shape="589.60,595.20 592.05,594.85 593.80,593.80 594.85,592.05 595.20,589.60" />
    </edge>
    <edge id=":B1_16" function="internal">
        <lane id=":B1_16_0" index="0" speed="13.89" length="20.80" shape="589.60,595.20 610.40,595.20" />
        <lane id=":B1_16_1" index="1" speed="13.89" length="20.80" shape="589.60,598.40 610.40,598.40" />
    </edge>
    <edge id=":B1_18" function="internal">
        <lane id=":B1_18_0" index="0" speed="9.26" length="5.01" shape="589.60,598.40 594.56,599.11" />
    </edge>
    <edge id=":B1_19" function="internal">
        <lane id=":B1_19_0" index="0" speed="3.65" length="1.44" shape="589.60,598.40 590.80,599.20" />
    </edge>
    <edge id=":B1_26" function="internal">
        <lane id=":B1_26_0" index="0" speed="9.26" length="14.34" shape="594.56,599.11 594.85,599.15 598.60,601.40 600.85,605.15 601.60,610.40" />
    </edge>
    <edge id=":B1_27" function="internal">
        <lane id=":B1_27_0" index="0" speed="3.65" length="3.23" shape="590.80,599.20 591.20,600.00 590.80,600.80 589.60,601.60" />
    </edge>
    <edge id=":B2_0" function="internal">
        <lane id=":B2_0_0" index="0" speed="6.51" length="9.03" shape="595.20,1210.40 594.85,1207.95 593.80,1206.20 592.05,1205.15 589.60,1204.80" />
    </edge>
    <edge id=":B2_1" function="internal">
        <lane id=":B2_1_0" index="0" speed="13.89" length="20.80" shape="595.20,1210.40 595.20,1189.60" />
        <lane id=":B2_1_1" index="1" speed="13.89" length="20.80" shape="598.40,1210.40 598.40,1189.60" />
    </edge>
    <edge id=":B2_3" function="internal">
        <lane id=":B2_3_0" index="0" speed="9.26" length="5.01" shape="598.40,1210.40 599.11,1205.44" />
    </edge>
    <edge id=":B2_4" function="internal">
        <lane id=":B2_4_0" index="0" speed="3.65" length="1.44" shape="598.40,1210.40 599.20,1209.20" />
    </edge>
    <edge id=":B2_20" function="internal">
        <lane id=":B2_20_0" index="0" speed="9.26" length="14.34" shape="599.11,1205.44 599.15,1205.15 601.40,1201.40 605.15,1199.15 610.40,1198.40" />
    </edge>
    <edge id=":B2_21" function="internal">
        <lane id=":B2_21_0" index="0" speed="3.65" length="3.23" shape="599.20,1209.20 600.00,1208.80 600.80,1209.20 601.60,1210.40" />
    </edge>
    <edge id=":B2_5" function="internal">
        <lane id=":B2_5_0" index="0" speed="6.51" length="9.03" shape="610.40,1204.80 607.95,1205.15 606.20,1206.20 605.15,1207.95 604.80,1210.40" />
    </edge>
    <edge id=":B2_6" function="internal">
        <lane id=":B2_6_0" index="0" speed="13.89" length="20.80" shape="610.40,1204.80 589.60,1204.80" />
        <lane id=":B2_6_1" index="1" speed="13.89" length="20.80" shape="610.40,1201.60 589.60,1201.60" />
    </edge>
    <edge id=":B2_8" function="internal">
        <lane id=":B2_8_0" index="0" speed="9.26" length="5.01" shape="610.40,1201.60 605.44,1200.89" />
    </edge>
    <edge id=":B2_9" function="internal">
        <lane id=":B2_9_0" index="0" speed="3.65" length="1.44" shape="610.40,1201.60 609.20,1200.80" />
    </edge>
    <edge id=":B2_22" function="internal">
        <lane id=":B2_22_0" index="0" speed="9.26" length="14.34" shape="605.44,1200.89 605.15,1200.85 601.40,1198.60 599.15,1194.85 598.40,1189.60" />
    </edge>
    <edge id=":B2_23" function="internal">
        <lane id=":B2_23_0" index="0" speed="3.65" length="3.23" shape="609.20,1200.80 608.80,1200.00 609.20,1199.20 610.40,1198.40" />
    </edge>
    <edge id=":B2_10" function="internal">
        <lane id=":B2_10_0" index="0" speed="6.51" length="9.03" shape="604.80,1189.60 605.15,1192.05 606.20,1193.80 607.95,1194.85 610.40,1195.20" />
    </edge>
    <edge id=":B2_11" function="internal">
        <lane id=":B2_11_0" index="0" speed="13.89" length="20.80" shape="604.80,1189.60 604.80,1210.40" />
        <lane id=":B2_11_1" index="1" speed="13.89" length="20.80" shape="601.60,1189.60 601.60,1210.40" />
    </edge>
    <edge id=":B2_13" function="internal">
        <lane id=":B2_13_0" index="0" speed="9.26" length="5.01" shape="601.60,1189.60 600.89,1194.56" />
    </edge>
    <edge id=":B2_14" function="internal">
        <lane id=":B2_14_0" index="0" speed="3.65" length="1.44" shape="601.60,1189.60 600.80,1190.80" />
    </edge>
    <edge id=":B2_24" function="internal">
        <lane id=":B2_24_0" index="0" speed="9.26" length="14.34" shape="600.89,1194.56 600.85,1194.85 598.60,1198.60 594.85,1200.85 589.60,1201.60" />
    </edge>
    <edge id=":B2_25" function="internal">
        <lane id=":B2_25_0" index="0" speed="3.65" length="3.23" shape="600.80,1190.80 600.00,1191.20 599.20,1190.80 598.40,1189.60" />
    </edge>
    <edge id=":B2_15" function="internal">
        <lane id=":B2_15_0" index="0" speed="6.51" length="9.03" shape="589.60,1195.20 592.05,1194.85 593.80,1193.80 594.85,1192.05 595.20,1189.60" />
    </edge>
    <edge id=":B2_16" function="internal">
        <lane id=":B2_16_0" index="0" speed="13.89" length="20.80" shape="589.60,1195.20 610.40,1195.20" />
        <lane id=":B2_16_1" index="1" speed="13.89" length="20.80" shape="589.60,1198.40 610.40,1198.40" />
    </edge>
    <edge id=":B2_18" function="internal">
        <lane id=":B2_18_0" index="0" speed="9.26" length="5.01" shape="589.60,1198.40 594.56,1199.11" />
    </edge>
    <edge id=":B2_19" function="internal">
        <lane id=":B2_19_0" index="0" speed="3.65" length="1.44" shape="589.60,1198.40 590.80,1199.20" />
    </edge>
    <edge id=":B2_26" function="internal">
        <lane id=":B2_26_0" index="0" speed="9.26" length="14.34" shape="594.56,1199.11 594.85,1199.15 598.60,1201.40 600.85,1205.15 601.60,1210.40" />
    </edge>
    <edge id=":B2_27" function="internal">
        <lane id=":B2_27_0" index="0" speed="3.65" length="3.23" shape="590.80,1199.20 591.20,1200.00 590.80,1200.80 589.60,1201.60" />
    </edge>
    <edge id=":B3_0" function="internal">
        <lane id=":B3_0_0" index="0" speed="13.89" length="20.80" shape="610.40,1804.80 589.60,1804.80" />
        <lane id=":B3_0_1" index="1" speed="13.89" length="20.80" shape="610.40,1801.60 589.60,1801.60" />
    </edge>
    <edge id=":B3_2" function="internal">
        <lane id=":B3_2_0" index="0" speed="9.26" length="5.01" shape="610.40,1801.60 605.44,1800.89" />
    </edge>
    <edge id=":B3_3" function="internal">
        <lane id=":B3_3_0" index="0" speed="3.65" length="1.44" shape="610.40,1801.60 609.20,1800.80" />
    </edge>
    <edge id=":B3_11" function="internal">
        <lane id=":B3_11_0" index="0" speed="9.26" length="14.34" shape="605.44,1800.89 605.15,1800.85 601.40,1798.60 599.15,1794.85 598.40,1789.60" />
    </edge>
    <edge id=":B3_12" function="internal">
        <lane id=":B3_12_0" index="0" speed="3.65" length="3.23" shape="609.20,1800.80 608.80,1800.00 609.20,1799.20 610.40,1798.40" />
    </edge>
    <edge id=":B3_4" function="internal">
        <lane id=":B3_4_0" index="0" speed="6.51" length="9.03" shape="604.80,1789.60 605.15,1792.05 606.20,1793.80 607.95,1794.85 610.40,1795.20" />
    </edge>
    <edge id=":B3_5" function="internal">
        <lane id=":B3_5_0" index="0" speed="9.26" length="19.35" shape="601.60,1789.60 600.85,1794.85 598.60,1798.60 594.85,1800.85 589.60,1801.60" />
    </edge>
    <edge id=":B3_6" function="internal">
        <lane id=":B3_6_0" index="0" speed="3.65" length="2.34" shape="601.60,1789.60 600.80,1790.80 600.00,1791.20" />
    </edge>
    <edge id=":B3_13" function="internal">
        <lane id=":B3_13_0" index="0" speed="3.65" length="2.34" shape="600.00,1791.20 599.20,1790.80 598.40,1789.60" />
    </edge>
    <edge id=":B3_7" function="internal">
        <lane id=":B3_7_0" index="0" speed="6.51" length="9.03" shape="589.60,1795.20 592.05,1794.85 593.80,1793.80 594.85,1792.05 595.20,1789.60" />
    </edge>
    <edge id=":B3_8" function="internal">
        <lane id=":B3_8_0" index="0" speed="13.89" length="20.80" shape="589.60,1795.20 610.40,1795.20" />
        <lane id=":B3_8_1" index="1" speed="13.89" length="20.80" shape="589.60,1798.40 610.40,1798.40" />
    </edge>
    <edge id=":B3_10" function="internal">
        <lane id=":B3_10_0" index="0" speed="3.65" length="1.44" shape="589.60,1798.40 590.80,1799.20" />
    </edge>
    <edge id=":B3_14" function="internal">
        <lane id=":B3_14_0" index="0" speed="3.65" length="3.23" shape="590.80,1799.20 591.20,1800.00 590.80,1800.80 589.60,1801.60" />
    </edge>
    <edge id=":C0_0" function="internal">
        <lane id=":C0_0_0" index="0" speed="6.51" length="9.03" shape="1195.20,10.40 1194.85,7.95 1193.80,6.20 1192.05,5.15 1189.60,4.80" />
    </edge>
    <edge id=":C0_1" function="internal">
        <lane id=":C0_1_0" index="0" speed="9.26" length="19.35" shape="1198.40,10.40 1199.15,5.15 1201.40,1.40 1205.15,-0.85 1210.40,-1.60" />
    </edge>
    <edge id=":C0_2" function="internal">
        <lane id=":C0_2_0" index="0" speed="3.65" length="2.34" shape="1198.40,10.40 1199.20,9.20 1200.00,8.80" />
    </edge>
    <edge id=":C0_11" function="internal">
        <lane id=":C0_11_0" index="0" speed="3.65" length="2.34" shape="1200.00,8.80 1200.80,9.20 1201.60,10.40" />
    </edge>
    <edge id=":C0_3" function="internal">
        <lane id=":C0_3_0" index="0" speed="6.51" length="9.03" shape="1210.40,4.80 1207.95,5.15 1206.20,6.20 1205.15,7.95 1204.80,10.40" />
    </edge>
    <edge id=":C0_4" function="internal">
        <lane id=":C0_4_0" index="0" speed="13.89" length="20.80" shape="1210.40,4.80 1189.60,4.80" />
        <lane id=":C0_4_1" index="1" speed="13.89" length="20.80" shape="1210.40,1.60 1189.60,1.60" />
    </edge>
    <edge id=":C0_6" function="internal">
        <lane id=":C0_6_0" index="0" speed="3.65" length="1.44" shape="1210.40,1.60 1209.20,0.80" />
    </edge>
    <edge id=":C0_12" function="internal">
        <lane id=":C0_12_0" index="0" speed="3.65" length="3.23" shape="1209.20,0.80 1208.80,0.00 1209.20,-0.80 1210.40,-1.60" />
    </edge>
    <edge id=":C0_7" function="internal">
        <lane id=":C0_7_0" index="0" speed="13.89" length="20.80" shape="1189.60,-4.80 1210.40,-4.80" />
        <lane id=":C0_7_1" index="1" speed="13.89" length="20.80" shape="1189.60,-1.60 1210.40,-1.60" />
    </edge>
    <edge id=":C0_9" function="internal">
        <lane id=":C0_9_0" index="0" speed="9.26" length="5.01" shape="1189.60,-1.60 1194.56,-0.89" />
    </edge>
    <edge id=":C0_10" function="internal">
        <lane id=":C0_10_0" index="0" speed="3.65" length="1.44" shape="1189.60,-1.60 1190.80,-0.80" />
    </edge>
    <edge id=":C0_13" function="internal">
        <lane id=":C0_13_0" index="0" speed="9.26" length="14.34" shape="1194.56,-0.89 1194.85,-0.85 1198.60,1.40 1200.85,5.15 1201.60,10.40" />
    </edge>
    <edge id=":C0_14" function="internal">
        <lane id=":C0_14_0" index="0" speed="3.65" length="3.23" shape="1190.80,-0.80 1191.20,0.00 1190.80,0.80 1189.60,1.60" />
    </edge>
    <edge id=":C1_0" function="internal">
        <lane id=":C1_0_0" index="0" speed="6.51" length="9.03" shape="1195.20,610.40 1194.85,607.95 1193.80,606.20 1192.05,605.15 1189.60,604.80" />
    </edge>
    <edge id=":C1_1" function="internal">
        <lane id=":C1_1_0" index="0" speed="13.89" length="20.80" shape="1195.20,610.40 1195.20,589.60" />
        <lane id=":C1_1_1" index="1" speed="13.89" length="20.80" shape="1198.40,610.40 1198.40,589.60" />
    </edge>
    <edge id=":C1_3" function="internal">
        <lane id=":C1_3_0" index="0" speed="9.26" length="5.01" shape="1198.40,610.40 1199.11,605.44" />
    </edge>
    <edge id=":C1_4" function="internal">
        <lane id=":C1_4_0" index="0" speed="3.65" length="1.44" shape="1198.40,610.40 1199.20,609.20" />
    </edge>
    <edge id=":C1_20" function="internal">
        <lane id=":C1_20_0" index="0" speed="9.26" length="14.34" shape="1199.11,605.44 1199.15,605.15 1201.40,601.40 1205.15,599.15 1210.40,598.40" />
    </edge>
    <edge id=":C1_21" function="internal">
        <lane id=":C1_21_0" index="0" speed="3.65" length="3.23" shape="1199.20,609.20 1200.00,608.80 1200.80,609.20 1201.60,610.40" />
    </edge>
    <edge id=":C1_5" function="internal">
        <lane id=":C1_5_0" index="0" speed="6.51" length="9.03" shape="1210.40,604.80 1207.95,605.15 1206.20,606.20 1205.15,607.95 1204.80,610.40" />
    </edge>
    <edge id=":C1_6" function="internal">
        <lane id=":C1_6_0" index="0" speed="13.89" length="20.80" shape="1210.40,604.80 1189.60,604.80" />
        <lane id=":C1_6_1" index="1" speed="13.89" length="20.80" shape="1210.40,601.60 1189.60,601.60" />
    </edge>
    <edge id=":C1_8" function="internal">
        <lane id=":C1_8_0" index="0" speed="9.26" length="5.01" shape="1210.40,601.60 1205.44,600.89" />
    </edge>
    <edge id=":C1_9" function="internal">
        <lane id=":C1_9_0" index="0" speed="3.65" length="1.44" shape="1210.40,601.60 1209.20,600.80" />
    </edge>
    <edge id=":C1_22" function="internal">
        <lane id=":C1_22_0" index="0" speed="9.26" length="14.34" shape="1205.44,600.89 1205.15,600.85 1201.40,598.60 1199.15,594.85 1198.40,589.60" />
    </edge>
    <edge id=":C1_23" function="internal">
        <lane id=":C1_23_0" index="0" speed="3.65" length="3.23" shape="1209.20,600.80 1208.80,600.00 1209.20,599.20 1210.40,598.40" />
    </edge>
    <edge id=":C1_10" function="internal">
        <lane id=":C1_10_0" index="0" speed="6.51" length="9.03" shape="1204.80,589.60 1205.15,592.05 1206.20,593.80 1207.95,594.85 1210.40,595.20" />
    </edge>
    <edge id=":C1_11" function="internal">
        <lane id=":C1_11_0" index="0" speed="13.89" length="20.80" shape="1204.80,589.60 1204.80,610.40" />
        <lane id=":C1_11_1" index="1" speed="13.89" length="20.80" shape="1201.60,589.60 1201.60,610.40" />
    </edge>
    <edge id=":C1_13" function="internal">
        <lane id=":C1_13_0" index="0" speed="9.26" length="5.01" shape="1201.60,589.60 1200.89,594.56" />
    </edge>
    <edge id=":C1_14" function="internal">
        <lane id=":C1_14_0" index="0" speed="3.65" length="1.44" shape="1201.60,589.60 1200.80,590.80" />
    </edge>
    <edge id=":C1_24" function="internal">
        <lane id=":C1_24_0" index="0" speed="9.26" length="14.34" shape="1200.89,594.56 1200.85,594.85 1198.60,598.60 1194.85,600.85 1189.60,601.60" />
    </edge>
    <edge id=":C1_25" function="internal">
        <lane id=":C1_25_0" index="0" speed="3.65" length="3.23" shape="1200.80,590.80 1200.00,591.20 1199.20,590.80 1198.40,589.60" />
    </edge>
    <edge id=":C1_15" function="internal">
        <lane id=":C1_15_0" index="0" speed="6.51" length="9.03" shape="1189.60,595.20 1192.05,594.85 1193.80,593.80 1194.85,592.05 1195.20,589.60" />
    </edge>
    <edge id=":C1_16" function="internal">
        <lane id=":C1_16_0" index="0" speed="13.89" length="20.80" shape="1189.60,595.20 1210.40,595.20" />
        <lane id=":C1_16_1" index="1" speed="13.89" length="20.80" shape="1189.60,598.40 1210.40,598.40" />
    </edge>
    <edge id=":C1_18" function="internal">
        <lane id=":C1_18_0" index="0" speed="9.26" length="5.01" shape="1189.60,598.40 1194.56,599.11" />
    </edge>
    <edge id=":C1_19" function="internal">
        <lane id=":C1_19_0" index="0" speed="3.65" length="1.44" shape="1189.60,598.40 1190.80,599.20" />
    </edge>
    <edge id=":C1_26" function="internal">
        <lane id=":C1_26_0" index="0" speed="9.26" length="14.34" shape="1194.56,599.11 1194.85,599.15 1198.60,601.40 1200.85,605.15 1201.60,610.40" />
    </edge>
    <edge id=":C1_27" function="internal">
        <lane id=":C1_27_0" index="0" speed="3.65" length="3.23" shape="1190.80,599.20 1191.20,600.00 1190.80,600.80 1189.60,601.60" />
    </edge>
    <edge id=":C2_0" function="internal">
        <lane id=":C2_0_0" index="0" speed="6.51" length="9.03" shape="1195.20,1210.40 1194.85,1207.95 1193.80,1206.20 1192.05,1205.15 1189.60,1204.80" />
    </edge>
    <edge id=":C2_1" function="internal">
        <lane id=":C2_1_0" index="0" speed="13.89" length="20.80" shape="1195.20,1210.40 1195.20,1189.60" />
        <lane id=":C2_1_1" index="1" speed="13.89" length="20.80" shape="1198.40,1210.40 1198.40,1189.60" />
    </edge>
    <edge id=":C2_3" function="internal">
        <lane id=":C2_3_0" index="0" speed="9.26" length="5.01" shape="1198.40,1210.40 1199.11,1205.44" />
    </edge>
    <edge id=":C2_4" function="internal">
        <lane id=":C2_4_0" index="0" speed="3.65" length="1.44" shape="1198.40,1210.40 1199.20,1209.20" />
    </edge>
    <edge id=":C2_20" function="internal">
        <lane id=":C2_20_0" index="0" speed="9.26" length="14.34" shape="1199.11,1205.44 1199.15,1205.15 1201.40,1201.40 1205.15,1199.15 1210.40,1198.40" />
    </edge>
    <edge id=":C2_21" function="internal">
        <lane id=":C2_21_0" index="0" speed="3.65" length="3.23" shape="1199.20,1209.20 1200.00,1208.80 1200.80,1209.20 1201.60,1210.40" />
    </edge>
    <edge id=":C2_5" function="internal">
        <lane id=":C2_5_0" index="0" speed="6.51" length="9.03" shape="1210.40,1204.80 1207.95,1205.15 1206.20,1206.20 1205.15,1207.95 1204.80,1210.40" />
    </edge>
    <edge id=":C2_6" function="internal">
        <lane id=":C2_6_0" index="0" speed="13.89" length="20.80" shape="1210.40,1204.80 1189.60,1204.80" />
        <lane id=":C2_6_1" index="1" speed="13.89" length="20.80" shape="1210.40,1201.60 1189.60,1201.60" />
    </edge>