<?xml version="1.0" encoding="UTF-8"?>

<!-- generated on 2025-10-24 13:26:23.409314 by randomTrips.py v1_24_0+0000-b72eb3fabc8
<configuration>
    <net-file value="re-manhattan.net.xml"/>
    <output-trip-file value="./flw/trips_tmp_512.xml"/>
    <trip-attributes value="type='type1'"/>
    <seed value="512"/>
    <end value="1.0"/>
    <period value="0.01"/>
</configuration>
-->

<!-- generated on 2025-10-24 13:26:23 by Eclipse SUMO duarouter Version 1.24.0
<duarouterConfiguration xmlns:xsi="http://www.w3.org/2001/XMLSchema-instance" xsi:noNamespaceSchemaLocation="http://sumo.dlr.de/xsd/duarouterConfiguration.xsd">

    <input>
        <net-file value="re-manhattan.net.xml"/>
        <route-files value="./flw/trips_tmp_512.xml"/>
    </input>

    <output>
        <output-file value="routes.rou.xml"/>
        <alternatives-output value="NUL"/>
    </output>

    <time>
        <begin value="0.0"/>
        <end value="1.0"/>
    </time>

    <report>
        <no-warnings value="true"/>
        <ignore-errors value="true"/>
        <no-step-log value="true"/>
    </report>

</duarouterConfiguration>
-->

<routes xmlns:xsi="http://www.w3.org/2001/XMLSchema-instance" xsi:noNamespaceSchemaLocation="http://sumo.dlr.de/xsd/routes_file.xsd">
    <vehicle id="0" type="type1" depart="0.00">
        <route edges="A0A1 A1A2 A2B2 B2B3 B3A3"/>
    </vehicle>
    <vehicle id="1" type="type1" depart="0.01">
        <route edges="B1B2 B2B3"/>
    </vehicle>
    <vehicle id="2" type="type1" depart="0.02">
        <route edges="D2D1 D1C1 C1B1 B1B2 B2B3"/>
    </vehicle>
    <vehicle id="3" type="type1" depart="0.03">
        <route edges="A3A2 A2A1 A1A0 A0B0 B0B1"/>
    </vehicle>
    <vehicle id="4" type="type1" depart="0.04">
        <route edges="A0A1 A1A2 A2B2 B2C2 C2C3 C3B3"/>
    </vehicle>
    <vehicle id="5" type="type1" depart="0.05">
        <route edges="B3C3 C3C2 C2B2 B2B3"/>
    </vehicle>
    <vehicle id="6" type="type1" depart="0.06">
        <route edges="C0C1 C1C2 C2D2"/>
    </vehicle>
    <vehicle id="7" type="type1" depart="0.07">
        <route edges="D1D2 D2C2 C2B2 B2B1 B1B0 B0C0"/>
    </vehicle>
    <vehicle id="8" type="type1" depart="0.08">
        <route edges="D1C1 C1B1 B1A1 A1B1"/>
    </vehicle>
    <vehicle id="9" type="type1" depart="0.09">
        <route edges="D1C1 C1C2 C2B2"/>
    </vehicle>
    <vehicle id="10" type="type1" depart="0.10">
        <route edges="A0B0 B0B1 B1A1 A1A2"/>
    </vehicle>
    <vehicle id="11" type="type1" depart="0.11">
        <route edges="A3B3 B3C3 C3C2 C2D2"/>
    </vehicle>
    <vehicle id="12" type="type1" depart="0.12">
        <route edges="B3A3 A3A2 A2B2 B2B3 B3C3"/>
    </vehicle>
    <vehicle id="13" type="type1" depart="0.13">
        <route edges="C1C0 C0B0 B0B1 B1A1 A1A0 A0B0"/>
    </vehicle>
    <vehicle id="14" type="type1" depart="0.14">
        <route edges="D1C1"/>
    </vehicle>
    <vehicle id="15" type="type1" depart="0.15">
        <route edges="C3D3 D3D2 D2C2 C2B2 B2B3 B3A3"/>
    </vehicle>
    <vehicle id="16" type="type1" depart="0.16">
        <route edges="C3C2 C2C1 C1C0 C0C1"/>
    </vehicle>
    <vehicle id="17" type="type1" depart="0.17">
        <route edges="B2C2 C2D2 D2D3 D3C3"/>
    </vehicle>
    <vehicle id="18" type="type1" depart="0.18">
        <route edges="B0A0 A0A1 A1A2 A2B2"/>
    </vehicle>
    <vehicle id="19" type="type1" depart="0.19">
        <route edges="B3B2 B2B1 B1A1 A1A2"/>
    </vehicle>
    <vehicle id="20" type="type1" depart="0.20">
        <route edges="A1A2 A2B2 B2B1 B1C1"/>
    </vehicle>
    <vehicle id="21" type="type1" depart="0.21">
        <route edges="D1D2 D2C2 C2B2"/>
    </vehicle>
    <vehicle id="22" type="type1" depart="0.22">
        <route edges="A2B2 B2C2 C2D2 D2D1 D1C1"/>
    </vehicle>
    <vehicle id="23" type="type1" depart="0.23">
        <route edges="D2D3 D3C3 C3C2 C2D2 D2D1 D1C1"/>
    </vehicle>
    <vehicle id="24" type="type1" depart="0.24">
        <route edges="C0C1 C1B1 B1B0 B0A0"/>
    </vehicle>
    <vehicle id="25" type="type1" depart="0.25">
        <route edges="C2B2 B2A2 A2A1 A1B1"/>
    </vehicle>
    <vehicle id="26" type="type1" depart="0.26">
        <route edges="D2D1 D1C1 C1C2 C2D2"/>
    </vehicle>
    <vehicle id="27" type="type1" depart="0.27">
        <route edges="D3C3 C3C2 C2C1 C1D1 D1D0 D0C0"/>
    </vehicle>
    <vehicle id="28" type="type1" depart="0.28">
        <route edges="D1D0 D0C0 C0C1 C1C0"/>
    </vehicle>
    <vehicle id="29" type="type1" depart="0.29">
        <route edges="B2A2 A2A3 A3B3 B3A3 A3A2"/>
    </vehicle>
    <vehicle id="30" type="type1" depart="0.30">
        <route edges="D1C1 C1B1 B1A1"/>
    </vehicle>
    <vehicle id="31" type="type1" depart="0.31">
        <route edges="D2C2 C2C1 C1D1 D1D0"/>
    </vehicle>
    <vehicle id="32" type="type1" depart="0.32">
        <route edges="D1D2 D2C2"/>
    </vehicle>
    <vehicle id="33" type="type1" depart="0.33">
        <route edges="B0B1 B1B2 B2C2 C2C1"/>
    </vehicle>
    <vehicle id="34" type="type1" depart="0.34">
        <route edges="C3D3 D3D2 D2D1 D1D0 D0C0 C0B0 B0A0"/>
    </vehicle>
    <vehicle id="35" type="type1" depart="0.35">
        <route edges="D0C0 C0B0"/>
    </vehicle>
    <vehicle id="36" type="type1" depart="0.36">
        <route edges="A1A2 A2B2 B2B1 B1B0 B0C0"/>
    </vehicle>
    <vehicle id="37" type="type1" depart="0.37">
        <route edges="A1A2 A2B2 B2B1 B1B2"/>
    </vehicle>
    <vehicle id="38" type="type1" depart="0.38">
        <route edges="C0D0 D0D1 D1D2"/>
    </vehicle>
    <vehicle id="39" type="type1" depart="0.39">
        <route edges="B0B1 B1C1 C1C2"/>
    </vehicle>
    <vehicle id="40" type="type1" depart="0.40">
        <route edges="C1B1 B1C1 C1D1 D1C1"/>
    </vehicle>
    <vehicle id="41" type="type1" depart="0.41">
        <route edges="A1A0 A0B0 B0B1 B1B2 B2A2 A2A1"/>
    </vehicle>
    <vehicle id="42" type="type1" depart="0.42">
        <route edges="B2C2 C2C1 C1C0 C0B0 B0B1"/>
    </vehicle>
    <vehicle id="43" type="type1" depart="0.43">
        <route edges="C0B0 B0A0 A0A1 A1B1"/>
    </vehicle>
    <vehicle id="44" type="type1" depart="0.44">
        <route edges="D0C0 C0B0 B0A0 A0A1 A1A2"/>
    </vehicle>
    <vehicle id="45" type="type1" depart="0.45">
        <route edges="B0C0 C0C1 C1C2 C2B2 B2B3 B3C3"/>
    </vehicle>
    <vehicle id="46" type="type1" depart="0.46">
        <route edges="D1D2 D2C2 C2B2 B2B1 B1A1"/>
    </vehicle>
    <vehicle id="47" type="type1" depart="0.47">
        <route edges="D2D1 D1C1 C1B1 B1B2 B2C2"/>
    </vehicle>
    <vehicle id="48" type="type1" depart="0.48">
        <route edges="C2C1 C1C2 C2C3 C3B3"/>
    </vehicle>
    <vehicle id="49" type="type1" depart="0.49">
        <route edges="B3A3 A3A2 A2B2 B2B1 B1A1"/>
    </vehicle>
    <vehicle id="50" type="type1" depart="0.50">
        <route edges="C2D2 D2C2 C2C3 C3D3 D3D2"/>
    </vehicle>
    <vehicle id="51" type="type1" depart="0.51">
        <route edges="C1C0 C0B0 B0B1 B1B2"/>
    </vehicle>
    <vehicle id="52" type="type1" depart="0.52">
        <route edges="C2D2 D2D1 D1C1 C1C0 C0D0 D0D1"/>
    </vehicle>
    <vehicle id="53" type="type1" depart="0.53">
        <route edges="D0D1 D1C1 C1C0"/>
    </vehicle>
    <vehicle id="54" type="type1" depart="0.54">
        <route edges="C1B1 B1B2 B2C2 C2D2 D2D1"/>
    </vehicle>
    <vehicle id="55" type="type1" depart="0.55">
        <route edges="D3D2 D2C2 C2C1"/>
    </vehicle>
    <vehicle id="56" type="type1" depart="0.56">
        <route edges="B0C0 C0C1 C1B1 B1A1 A1A0 A0B0"/>
    </vehicle>
    <vehicle id="57" type="type1" depart="0.57">
        <route edges="C3C2 C2D2 D2C2"/>
    </vehicle>
    <vehicle id="58" type="type1" depart="0.58">
        <route edges="C0D0 D0D1 D1C1 C1B1 B1A1 A1A0 A0B0"/>
    </vehicle>
    <vehicle id="59" type="type1" depart="0.59">
        <route edges="B1C1 C1D1"/>
    </vehicle>
    <vehicle id="60" type="type1" depart="0.60">
        <route edges="B1B0 B0C0 C0C1 C1C2 C2C3 C3D3 D3D2"/>
    </vehicle>
    <vehicle id="61" type="type1" depart="0.61">
        <route edges="C1C2 C2C1 C1C0 C0B0"/>
    </vehicle>
    <vehicle id="62" type="type1" depart="0.62">
        <route edges="D2D1 D1C1 C1B1 B1B2 B2B3 B3A3"/>
    </vehicle>
    <vehicle id="63" type="type1" depart="0.63">
        <route edges="C2D2 D2D1 D1D2"/>
    </vehicle>
    <vehicle id="64" type="type1" depart="0.64">
        <route edges="C1C0 C0B0 B0B1 B1B2 B2B3 B3B2"/>
    </vehicle>
    <vehicle id="65" type="type1" depart="0.65">
        <route edges="D1D0 D0C0 C0C1 C1C2 C2C3 C3D3 D3D2"/>
    </vehicle>
    <vehicle id="66" type="type1" depart="0.66">
        <route edges="B2B1 B1A1"/>
    </vehicle>
    <vehicle id="67" type="type1" depart="0.67">
        <route edges="C3D3 D3D2 D2D1 D1D0 D0C0 C0B0 B0B1"/>
    </vehicle>
    <vehicle id="68" type="type1" depart="0.68">
        <route edges="B1A1 A1A0 A0B0 B0C0"/>
    </vehicle>
    <vehicle id="69" type="type1" depart="0.69">
        <route edges="B3B2 B2C2 C2D2 D2D3"/>
    </vehicle>
    <vehicle id="70" type="type1" depart="0.70">
        <route edges="D2D1 D1C1 C1C2 C2C3 C3D3"/>
    </vehicle>
    <vehicle id="71" type="type1" depart="0.71">
        <route edges="C1B1 B1B2 B2A2 A2A1"/>
    </vehicle>
    <vehicle id="72" type="type1" depart="0.72">
        <route edges="D2D1 D1C1 C1B1 B1B0 B0C0"/>
    </vehicle>
    <vehicle id="73" type="type1" depart="0.73">
        <route edges="D1D0 D0C0 C0B0 B0B1 B1B2 B2B3"/>
    </vehicle>
    <vehicle id="74" type="type1" depart="0.74">
        <route edges="D1D0 D0C0 C0C1 C1C0"/>
    </vehicle>
    <vehicle id="75" type="type1" depart="0.75">
        <route edges="C1B1 B1A1 A1A2 A2A3 A3B3"/>
    </vehicle>
    <vehicle id="76" type="type1" depart="0.76">
        <route edges="C1C0 C0B0 B0A0 A0A1 A1A2"/>
    </vehicle>
    <vehicle id="77" type="type1" depart="0.77">
        <route edges="A1A0 A0B0 B0B1 B1B2 B2B3 B3A3"/>
    </vehicle>
    <vehicle id="78" type="type1" depart="0.78">
        <route edges="A1B1 B1B0 B0A0 A0A1"/>
    </vehicle>
    <vehicle id="79" type="type1" depart="0.79">
        <route edges="C3D3 D3D2 D2C2 C2B2 B2B1 B1C1"/>
    </vehicle>
    <vehicle id="80" type="type1" depart="0.80">
        <route edges="C1B1 B1B0 B0A0 A0A1"/>
    </vehicle>
    <vehicle id="81" type="type1" depart="0.81">
        <route edges="D2D1 D1C1 C1C2 C2B2"/>
    </vehicle>
    <vehicle id="82" type="type1" depart="0.82">
        <route edges="B1B2 B2C2 C2D2 D2D1 D1D0"/>
    </vehicle>
    <vehicle id="83" type="type1" depart="0.83">
        <route edges="D1D2 D2D1"/>
    </vehicle>
    <vehicle id="84" type="type1" depart="0.84">
        <route edges="C2D2 D2D1 D1C1 C1B1 B1B0"/>
    </vehicle>
    <vehicle id="85" type="type1" depart="0.85">
        <route edges="A0A1 A1A2 A2B2 B2C2 C2C3"/>
    </vehicle>
    <vehicle id="86" type="type1" depart="0.86">
        <route edges="B1B0 B0B1 B1B2 B2B1"/>
    </vehicle>
    <vehicle id="87" type="type1" depart="0.87">
        <route edges="D0D1 D1C1 C1C0 C0B0"/>
    </vehicle>
    <vehicle id="88" type="type1" depart="0.88">
        <route edges="B2B1 B1B0 B0C0 C0C1"/>
    </vehicle>
    <vehicle id="89" type="type1" depart="0.89">
        <route edges="C0C1"/>
    </vehicle>
    <vehicle id="90" type="type1" depart="0.90">
        <route edges="B1A1 A1B1"/>
    </vehicle>
    <vehicle id="91" type="type1" depart="0.91">
        <route edges="C2C3 C3B3 B3A3 A3A2 A2B2"/>
    </vehicle>
    <vehicle id="92" type="type1" depart="0.92">
        <route edges="A1B1 B1C1 C1D1 D1D0 D0C0"/>
    </vehicle>
    <vehicle id="93" type="type1" depart="0.93">
        <route edges="A2B2 B2A2 A2A3"/>
    </vehicle>
    <vehicle id="94" type="type1" depart="0.94">
        <route edges="B2C2 C2D2 D2D1"/>
    </vehicle>
    <vehicle id="95" type="type1" depart="0.95">
        <route edges="C0D0 D0D1"/>
    </vehicle>
    <vehicle id="96" type="type1" depart="0.96">
        <route edges="C2C1 C1B1 B1A1"/>
    </vehicle>
    <vehicle id="97" type="type1" depart="0.97">
        <route edges="B3A3 A3A2 A2A1 A1A0 A0B0 B0C0"/>
    </vehicle>
    <vehicle id="98" type="type1" depart="0.98">
        <route edges="B0B1 B1B2 B2B3 B3C3 C3D3 D3D2"/>
    </vehicle>
    <vehicle id="99" type="type1" depart="0.99">
        <route edges="B1C1 C1B1 B1A1 A1A0"/>
    </vehicle>
</routes>
